
** Library name: cad6
** Cell name: BUF_X1
** View name: schematic
.subckt BUF_X1 a z
