* File: /gscratch/ece/courses/476/jarenas/jarenas_git/cad6/netlist/PEX/ALU_LOGIC_UNIT_16B.pex.netlist
* Created: Fri Dec  3 16:09:33 2021
* Program "Calibre xRC"
* Version "v2021.3_35.19"
* 
.subckt ALU_LOGIC_UNIT_16B  CTRL<1> CTRL<0> VDD! VSS! OP0<15> OP1<15>
+ LOGIC_OUT<15> OP0<14> OP1<14> LOGIC_OUT<14> OP0<12> OP1<12> LOGIC_OUT<12>
+ OP0<13> OP1<13> LOGIC_OUT<13> OP0<0> OP1<0> LOGIC_OUT<0> OP0<1> OP1<1>
+ LOGIC_OUT<1> OP0<2> OP1<2> LOGIC_OUT<2> OP0<3> OP1<3> LOGIC_OUT<3> OP0<4>
+ OP1<4> LOGIC_OUT<4> OP0<5> OP1<5> LOGIC_OUT<5> OP0<6> OP1<6> LOGIC_OUT<6>
+ OP0<7> OP1<7> LOGIC_OUT<7> OP0<8> OP1<8> LOGIC_OUT<8> OP0<9> OP1<9>
+ LOGIC_OUT<9> OP0<10> OP1<10> LOGIC_OUT<10> OP0<11> OP1<11> LOGIC_OUT<11>
* 
mXI0/XI0/MM_i_1 XI0/XI0/NET_0 OP0<15> VSS! VSS! NMOS_VTL L=5e-08 W=4.15e-07
+ AD=5.81e-14 AS=4.3575e-14 PD=1.11e-06 PS=1.04e-06
mXI0/XI0/MM_i_0 XI0/NAND_OUT OP1<15> XI0/XI0/NET_0 VSS! NMOS_VTL L=5e-08
+ W=4.15e-07 AD=4.3575e-14 AS=5.81e-14 PD=1.04e-06 PS=1.11e-06
mXI0/XI1/MM_i_0 XI0/XI1/NET_001 OP1<15> XI0/XI1/NET_000 VSS! NMOS_VTL L=5e-08
+ W=2.1e-07 AD=2.94e-14 AS=2.205e-14 PD=7e-07 PS=6.3e-07
mXI0/XI1/MM_i_5 VSS! OP0<15> XI0/XI1/NET_001 VSS! NMOS_VTL L=5e-08 W=2.1e-07
+ AD=4.48e-14 AS=2.94e-14 PD=1.12e-06 PS=7e-07
mXI0/XI1/MM_i_11 XI0/XI1/NET_002 XI0/XI1/NET_000 VSS! VSS! NMOS_VTL L=5e-08
+ W=4.15e-07 AD=5.81e-14 AS=4.48e-14 PD=1.11e-06 PS=1.12e-06
mXI0/XI1/MM_i_17 XI0/XNOR_OUT OP1<15> XI0/XI1/NET_002 VSS! NMOS_VTL L=5e-08
+ W=4.15e-07 AD=5.81e-14 AS=5.81e-14 PD=1.11e-06 PS=1.11e-06
mXI0/XI1/MM_i_23 XI0/XI1/NET_002 OP0<15> XI0/XNOR_OUT VSS! NMOS_VTL L=5e-08
+ W=4.15e-07 AD=4.3575e-14 AS=5.81e-14 PD=1.04e-06 PS=1.11e-06
mXI0/XI2/MM_i_1 XI0/NOR_OUT OP0<15> VSS! VSS! NMOS_VTL L=5e-08 W=4.15e-07
+ AD=5.81e-14 AS=4.3575e-14 PD=1.11e-06 PS=1.04e-06
mXI0/XI2/MM_i_0 VSS! OP1<15> XI0/NOR_OUT VSS! NMOS_VTL L=5e-08 W=4.15e-07
+ AD=4.3575e-14 AS=5.81e-14 PD=1.04e-06 PS=1.11e-06
mXI0/XI5/XI1/MM_i_0 LOGIC_OUT<15> XI0/XI5/Z VSS! VSS! NMOS_VTL L=5e-08
+ W=4.15e-07 AD=4.3575e-14 AS=4.3575e-14 PD=1.04e-06 PS=1.04e-06
mXI0/XI0/MM_i_3 XI0/NAND_OUT OP0<15> VDD! VDD! PMOS_VTL L=5e-08 W=6.3e-07
+ AD=8.82e-14 AS=6.615e-14 PD=1.54e-06 PS=1.47e-06
mXI0/XI0/MM_i_2 VDD! OP1<15> XI0/NAND_OUT VDD! PMOS_VTL L=5e-08 W=6.3e-07
+ AD=6.615e-14 AS=8.82e-14 PD=1.47e-06 PS=1.54e-06
mXI0/XI1/MM_i_29 XI0/XI1/NET_000 OP1<15> VDD! VDD! PMOS_VTL L=5e-08 W=3.15e-07
+ AD=4.41e-14 AS=3.3075e-14 PD=9.1e-07 PS=8.4e-07
mXI0/XI1/MM_i_36 VDD! OP0<15> XI0/XI1/NET_000 VDD! PMOS_VTL L=5e-08 W=3.15e-07
+ AD=6.7725e-14 AS=4.41e-14 PD=1.55e-06 PS=9.1e-07
mXI0/XI1/MM_i_42 XI0/XNOR_OUT XI0/XI1/NET_000 VDD! VDD! PMOS_VTL L=5e-08
+ W=6.3e-07 AD=8.82e-14 AS=6.7725e-14 PD=1.54e-06 PS=1.55e-06
mXI0/XI1/MM_i_48 XI0/XI1/NET_003 OP1<15> XI0/XNOR_OUT VDD! PMOS_VTL L=5e-08
+ W=6.3e-07 AD=8.82e-14 AS=8.82e-14 PD=1.54e-06 PS=1.54e-06
mXI0/XI1/MM_i_53 VDD! OP0<15> XI0/XI1/NET_003 VDD! PMOS_VTL L=5e-08 W=6.3e-07
+ AD=6.615e-14 AS=8.82e-14 PD=1.47e-06 PS=1.54e-06
mXI0/XI2/MM_i_3 XI0/XI2/NET_0 OP0<15> VDD! VDD! PMOS_VTL L=5e-08 W=6.3e-07
+ AD=8.82e-14 AS=6.615e-14 PD=1.54e-06 PS=1.47e-06
mXI0/XI2/MM_i_2 XI0/NOR_OUT OP1<15> XI0/XI2/NET_0 VDD! PMOS_VTL L=5e-08
+ W=6.3e-07 AD=6.615e-14 AS=8.82e-14 PD=1.47e-06 PS=1.54e-06
mXI0/XI5/XI1/MM_i_1 LOGIC_OUT<15> XI0/XI5/Z VDD! VDD! PMOS_VTL L=5e-08 W=6.3e-07
+ AD=6.615e-14 AS=6.615e-14 PD=1.47e-06 PS=1.47e-06
mXI0/XI4/MM_i_10 VSS! CTRL0B<15> XI0/XI4/X1 VSS! NMOS_VTL L=5e-08 W=2.1e-07
+ AD=2.94e-14 AS=2.205e-14 PD=7e-07 PS=6.3e-07
mXI0/XI4/MM_i_4 XI0/XI4/NET_1 XI0/NOR_OUT VSS! VSS! NMOS_VTL L=5e-08 W=2.1e-07
+ AD=2.94e-14 AS=2.94e-14 PD=7e-07 PS=7e-07
mXI0/XI4/MM_i_5 XI0/XI4/Z_NEG XI0/XI4/X1 XI0/XI4/NET_1 VSS! NMOS_VTL L=5e-08
+ W=2.1e-07 AD=2.94e-14 AS=2.94e-14 PD=7e-07 PS=7e-07
mXI0/XI4/MM_i_2 XI0/XI4/Z_NEG CTRL0B<15> XI0/XI4/NET_0 VSS! NMOS_VTL L=5e-08
+ W=2.1e-07 AD=2.94e-14 AS=2.94e-14 PD=7e-07 PS=7e-07
mXI0/XI4/MM_i_3 XI0/XI4/NET_0 OP0<15> VSS! VSS! NMOS_VTL L=5e-08 W=2.1e-07
+ AD=2.94e-14 AS=4.375e-14 PD=7e-07 PS=1.11e-06
mXI0/XI4/MM_i_0 XI0/MUX1 XI0/XI4/Z_NEG VSS! VSS! NMOS_VTL L=5e-08 W=4.15e-07
+ AD=4.3575e-14 AS=4.375e-14 PD=1.04e-06 PS=1.11e-06
mXI0/XI4/MM_i_11 VDD! CTRL0B<15> XI0/XI4/X1 VDD! PMOS_VTL L=5e-08 W=3.15e-07
+ AD=4.41e-14 AS=3.3075e-14 PD=9.1e-07 PS=8.4e-07
mXI0/XI4/MM_i_8 VDD! XI0/NOR_OUT XI0/XI4/NET_2 VDD! PMOS_VTL L=5e-08 W=3.15e-07
+ AD=4.41e-14 AS=4.41e-14 PD=9.1e-07 PS=9.1e-07
mXI0/XI4/MM_i_6 XI0/XI4/NET_2 CTRL0B<15> XI0/XI4/Z_NEG VDD! PMOS_VTL L=5e-08
+ W=3.15e-07 AD=4.41e-14 AS=4.41e-14 PD=9.1e-07 PS=9.1e-07
mXI0/XI4/MM_i_9 XI0/XI4/NET_3 XI0/XI4/X1 XI0/XI4/Z_NEG VDD! PMOS_VTL L=5e-08
+ W=3.15e-07 AD=4.41e-14 AS=4.41e-14 PD=9.1e-07 PS=9.1e-07
mXI0/XI4/MM_i_7 VDD! OP0<15> XI0/XI4/NET_3 VDD! PMOS_VTL L=5e-08 W=3.15e-07
+ AD=6.615e-14 AS=4.41e-14 PD=1.54e-06 PS=9.1e-07
mXI0/XI4/MM_i_1 XI0/MUX1 XI0/XI4/Z_NEG VDD! VDD! PMOS_VTL L=5e-08 W=6.3e-07
+ AD=6.615e-14 AS=6.615e-14 PD=1.47e-06 PS=1.54e-06
mXI0/XI5/XI0/MM_i_10 VSS! CTRL1B<15> XI0/XI5/XI0/X1 VSS! NMOS_VTL L=5e-08
+ W=2.1e-07 AD=2.94e-14 AS=2.205e-14 PD=7e-07 PS=6.3e-07
mXI0/XI5/XI0/MM_i_4 XI0/XI5/XI0/NET_1 XI0/MUX0 VSS! VSS! NMOS_VTL L=5e-08
+ W=2.1e-07 AD=2.94e-14 AS=2.94e-14 PD=7e-07 PS=7e-07
mXI0/XI5/XI0/MM_i_5 XI0/XI5/XI0/Z_NEG XI0/XI5/XI0/X1 XI0/XI5/XI0/NET_1 VSS!
+ NMOS_VTL L=5e-08 W=2.1e-07 AD=2.94e-14 AS=2.94e-14 PD=7e-07 PS=7e-07
mXI0/XI5/XI0/MM_i_2 XI0/XI5/XI0/Z_NEG CTRL1B<15> XI0/XI5/XI0/NET_0 VSS! NMOS_VTL
+ L=5e-08 W=2.1e-07 AD=2.94e-14 AS=2.94e-14 PD=7e-07 PS=7e-07
mXI0/XI5/XI0/MM_i_3 XI0/XI5/XI0/NET_0 XI0/MUX1 VSS! VSS! NMOS_VTL L=5e-08
+ W=2.1e-07 AD=2.94e-14 AS=4.375e-14 PD=7e-07 PS=1.11e-06
mXI0/XI5/XI0/MM_i_0 XI0/XI5/Z XI0/XI5/XI0/Z_NEG VSS! VSS! NMOS_VTL L=5e-08
+ W=4.15e-07 AD=4.3575e-14 AS=4.375e-14 PD=1.04e-06 PS=1.11e-06
mXI0/XI5/XI0/MM_i_11 VDD! CTRL1B<15> XI0/XI5/XI0/X1 VDD! PMOS_VTL L=5e-08
+ W=3.15e-07 AD=4.41e-14 AS=3.3075e-14 PD=9.1e-07 PS=8.4e-07
mXI0/XI5/XI0/MM_i_8 VDD! XI0/MUX0 XI0/XI5/XI0/NET_2 VDD! PMOS_VTL L=5e-08
+ W=3.15e-07 AD=4.41e-14 AS=4.41e-14 PD=9.1e-07 PS=9.1e-07
mXI0/XI5/XI0/MM_i_6 XI0/XI5/XI0/NET_2 CTRL1B<15> XI0/XI5/XI0/Z_NEG VDD! PMOS_VTL
+ L=5e-08 W=3.15e-07 AD=4.41e-14 AS=4.41e-14 PD=9.1e-07 PS=9.1e-07
mXI0/XI5/XI0/MM_i_9 XI0/XI5/XI0/NET_3 XI0/XI5/XI0/X1 XI0/XI5/XI0/Z_NEG VDD!
+ PMOS_VTL L=5e-08 W=3.15e-07 AD=4.41e-14 AS=4.41e-14 PD=9.1e-07 PS=9.1e-07
mXI0/XI5/XI0/MM_i_7 VDD! XI0/MUX1 XI0/XI5/XI0/NET_3 VDD! PMOS_VTL L=5e-08
+ W=3.15e-07 AD=6.615e-14 AS=4.41e-14 PD=1.54e-06 PS=9.1e-07
mXI0/XI5/XI0/MM_i_1 XI0/XI5/Z XI0/XI5/XI0/Z_NEG VDD! VDD! PMOS_VTL L=5e-08
+ W=6.3e-07 AD=6.615e-14 AS=6.615e-14 PD=1.47e-06 PS=1.54e-06
mXI0/XI3/MM_i_10 VSS! CTRL0B<15> XI0/XI3/X1 VSS! NMOS_VTL L=5e-08 W=2.1e-07
+ AD=2.94e-14 AS=2.205e-14 PD=7e-07 PS=6.3e-07
mXI0/XI3/MM_i_4 XI0/XI3/NET_1 XI0/NAND_OUT VSS! VSS! NMOS_VTL L=5e-08 W=2.1e-07
+ AD=2.94e-14 AS=2.94e-14 PD=7e-07 PS=7e-07
mXI0/XI3/MM_i_5 XI0/XI3/Z_NEG XI0/XI3/X1 XI0/XI3/NET_1 VSS! NMOS_VTL L=5e-08
+ W=2.1e-07 AD=2.94e-14 AS=2.94e-14 PD=7e-07 PS=7e-07
mXI0/XI3/MM_i_2 XI0/XI3/Z_NEG CTRL0B<15> XI0/XI3/NET_0 VSS! NMOS_VTL L=5e-08
+ W=2.1e-07 AD=2.94e-14 AS=2.94e-14 PD=7e-07 PS=7e-07
mXI0/XI3/MM_i_3 XI0/XI3/NET_0 XI0/XNOR_OUT VSS! VSS! NMOS_VTL L=5e-08 W=2.1e-07
+ AD=2.94e-14 AS=4.375e-14 PD=7e-07 PS=1.11e-06
mXI0/XI3/MM_i_0 XI0/MUX0 XI0/XI3/Z_NEG VSS! VSS! NMOS_VTL L=5e-08 W=4.15e-07
+ AD=4.3575e-14 AS=4.375e-14 PD=1.04e-06 PS=1.11e-06
mXI0/XI3/MM_i_11 VDD! CTRL0B<15> XI0/XI3/X1 VDD! PMOS_VTL L=5e-08 W=3.15e-07
+ AD=4.41e-14 AS=3.3075e-14 PD=9.1e-07 PS=8.4e-07
mXI0/XI3/MM_i_8 VDD! XI0/NAND_OUT XI0/XI3/NET_2 VDD! PMOS_VTL L=5e-08 W=3.15e-07
+ AD=4.41e-14 AS=4.41e-14 PD=9.1e-07 PS=9.1e-07
mXI0/XI3/MM_i_6 XI0/XI3/NET_2 CTRL0B<15> XI0/XI3/Z_NEG VDD! PMOS_VTL L=5e-08
+ W=3.15e-07 AD=4.41e-14 AS=4.41e-14 PD=9.1e-07 PS=9.1e-07
mXI0/XI3/MM_i_9 XI0/XI3/NET_3 XI0/XI3/X1 XI0/XI3/Z_NEG VDD! PMOS_VTL L=5e-08
+ W=3.15e-07 AD=4.41e-14 AS=4.41e-14 PD=9.1e-07 PS=9.1e-07
mXI0/XI3/MM_i_7 VDD! XI0/XNOR_OUT XI0/XI3/NET_3 VDD! PMOS_VTL L=5e-08 W=3.15e-07
+ AD=6.615e-14 AS=4.41e-14 PD=1.54e-06 PS=9.1e-07
mXI0/XI3/MM_i_1 XI0/MUX0 XI0/XI3/Z_NEG VDD! VDD! PMOS_VTL L=5e-08 W=6.3e-07
+ AD=6.615e-14 AS=6.615e-14 PD=1.47e-06 PS=1.54e-06
mXI4/XI0/MM_i_1 XI4/XI0/NET_0 OP0<14> VSS! VSS! NMOS_VTL L=5e-08 W=4.15e-07
+ AD=5.81e-14 AS=4.3575e-14 PD=1.11e-06 PS=1.04e-06
mXI4/XI0/MM_i_0 XI4/NAND_OUT OP1<14> XI4/XI0/NET_0 VSS! NMOS_VTL L=5e-08
+ W=4.15e-07 AD=4.3575e-14 AS=5.81e-14 PD=1.04e-06 PS=1.11e-06
mXI4/XI1/MM_i_0 XI4/XI1/NET_001 OP1<14> XI4/XI1/NET_000 VSS! NMOS_VTL L=5e-08
+ W=2.1e-07 AD=2.94e-14 AS=2.205e-14 PD=7e-07 PS=6.3e-07
mXI4/XI1/MM_i_5 VSS! OP0<14> XI4/XI1/NET_001 VSS! NMOS_VTL L=5e-08 W=2.1e-07
+ AD=4.48e-14 AS=2.94e-14 PD=1.12e-06 PS=7e-07
mXI4/XI1/MM_i_11 XI4/XI1/NET_002 XI4/XI1/NET_000 VSS! VSS! NMOS_VTL L=5e-08
+ W=4.15e-07 AD=5.81e-14 AS=4.48e-14 PD=1.11e-06 PS=1.12e-06
mXI4/XI1/MM_i_17 XI4/XNOR_OUT OP1<14> XI4/XI1/NET_002 VSS! NMOS_VTL L=5e-08
+ W=4.15e-07 AD=5.81e-14 AS=5.81e-14 PD=1.11e-06 PS=1.11e-06
mXI4/XI1/MM_i_23 XI4/XI1/NET_002 OP0<14> XI4/XNOR_OUT VSS! NMOS_VTL L=5e-08
+ W=4.15e-07 AD=4.3575e-14 AS=5.81e-14 PD=1.04e-06 PS=1.11e-06
mXI4/XI2/MM_i_1 XI4/NOR_OUT OP0<14> VSS! VSS! NMOS_VTL L=5e-08 W=4.15e-07
+ AD=5.81e-14 AS=4.3575e-14 PD=1.11e-06 PS=1.04e-06
mXI4/XI2/MM_i_0 VSS! OP1<14> XI4/NOR_OUT VSS! NMOS_VTL L=5e-08 W=4.15e-07
+ AD=4.3575e-14 AS=5.81e-14 PD=1.04e-06 PS=1.11e-06
mXI4/XI5/XI1/MM_i_0 LOGIC_OUT<14> XI4/XI5/Z VSS! VSS! NMOS_VTL L=5e-08
+ W=4.15e-07 AD=4.3575e-14 AS=4.3575e-14 PD=1.04e-06 PS=1.04e-06
mXI4/XI0/MM_i_3 XI4/NAND_OUT OP0<14> VDD! VDD! PMOS_VTL L=5e-08 W=6.3e-07
+ AD=8.82e-14 AS=6.615e-14 PD=1.54e-06 PS=1.47e-06
mXI4/XI0/MM_i_2 VDD! OP1<14> XI4/NAND_OUT VDD! PMOS_VTL L=5e-08 W=6.3e-07
+ AD=6.615e-14 AS=8.82e-14 PD=1.47e-06 PS=1.54e-06
mXI4/XI1/MM_i_29 XI4/XI1/NET_000 OP1<14> VDD! VDD! PMOS_VTL L=5e-08 W=3.15e-07
+ AD=4.41e-14 AS=3.3075e-14 PD=9.1e-07 PS=8.4e-07
mXI4/XI1/MM_i_36 VDD! OP0<14> XI4/XI1/NET_000 VDD! PMOS_VTL L=5e-08 W=3.15e-07
+ AD=6.7725e-14 AS=4.41e-14 PD=1.55e-06 PS=9.1e-07
mXI4/XI1/MM_i_42 XI4/XNOR_OUT XI4/XI1/NET_000 VDD! VDD! PMOS_VTL L=5e-08
+ W=6.3e-07 AD=8.82e-14 AS=6.7725e-14 PD=1.54e-06 PS=1.55e-06
mXI4/XI1/MM_i_48 XI4/XI1/NET_003 OP1<14> XI4/XNOR_OUT VDD! PMOS_VTL L=5e-08
+ W=6.3e-07 AD=8.82e-14 AS=8.82e-14 PD=1.54e-06 PS=1.54e-06
mXI4/XI1/MM_i_53 VDD! OP0<14> XI4/XI1/NET_003 VDD! PMOS_VTL L=5e-08 W=6.3e-07
+ AD=6.615e-14 AS=8.82e-14 PD=1.47e-06 PS=1.54e-06
mXI4/XI2/MM_i_3 XI4/XI2/NET_0 OP0<14> VDD! VDD! PMOS_VTL L=5e-08 W=6.3e-07
+ AD=8.82e-14 AS=6.615e-14 PD=1.54e-06 PS=1.47e-06
mXI4/XI2/MM_i_2 XI4/NOR_OUT OP1<14> XI4/XI2/NET_0 VDD! PMOS_VTL L=5e-08
+ W=6.3e-07 AD=6.615e-14 AS=8.82e-14 PD=1.47e-06 PS=1.54e-06
mXI4/XI5/XI1/MM_i_1 LOGIC_OUT<14> XI4/XI5/Z VDD! VDD! PMOS_VTL L=5e-08 W=6.3e-07
+ AD=6.615e-14 AS=6.615e-14 PD=1.47e-06 PS=1.47e-06
mXI4/XI4/MM_i_10 VSS! CTRL0B<14> XI4/XI4/X1 VSS! NMOS_VTL L=5e-08 W=2.1e-07
+ AD=2.94e-14 AS=2.205e-14 PD=7e-07 PS=6.3e-07
mXI4/XI4/MM_i_4 XI4/XI4/NET_1 XI4/NOR_OUT VSS! VSS! NMOS_VTL L=5e-08 W=2.1e-07
+ AD=2.94e-14 AS=2.94e-14 PD=7e-07 PS=7e-07
mXI4/XI4/MM_i_5 XI4/XI4/Z_NEG XI4/XI4/X1 XI4/XI4/NET_1 VSS! NMOS_VTL L=5e-08
+ W=2.1e-07 AD=2.94e-14 AS=2.94e-14 PD=7e-07 PS=7e-07
mXI4/XI4/MM_i_2 XI4/XI4/Z_NEG CTRL0B<14> XI4/XI4/NET_0 VSS! NMOS_VTL L=5e-08
+ W=2.1e-07 AD=2.94e-14 AS=2.94e-14 PD=7e-07 PS=7e-07
mXI4/XI4/MM_i_3 XI4/XI4/NET_0 OP0<14> VSS! VSS! NMOS_VTL L=5e-08 W=2.1e-07
+ AD=2.94e-14 AS=4.375e-14 PD=7e-07 PS=1.11e-06
mXI4/XI4/MM_i_0 XI4/MUX1 XI4/XI4/Z_NEG VSS! VSS! NMOS_VTL L=5e-08 W=4.15e-07
+ AD=4.3575e-14 AS=4.375e-14 PD=1.04e-06 PS=1.11e-06
mXI4/XI4/MM_i_11 VDD! CTRL0B<14> XI4/XI4/X1 VDD! PMOS_VTL L=5e-08 W=3.15e-07
+ AD=4.41e-14 AS=3.3075e-14 PD=9.1e-07 PS=8.4e-07
mXI4/XI4/MM_i_8 VDD! XI4/NOR_OUT XI4/XI4/NET_2 VDD! PMOS_VTL L=5e-08 W=3.15e-07
+ AD=4.41e-14 AS=4.41e-14 PD=9.1e-07 PS=9.1e-07
mXI4/XI4/MM_i_6 XI4/XI4/NET_2 CTRL0B<14> XI4/XI4/Z_NEG VDD! PMOS_VTL L=5e-08
+ W=3.15e-07 AD=4.41e-14 AS=4.41e-14 PD=9.1e-07 PS=9.1e-07
mXI4/XI4/MM_i_9 XI4/XI4/NET_3 XI4/XI4/X1 XI4/XI4/Z_NEG VDD! PMOS_VTL L=5e-08
+ W=3.15e-07 AD=4.41e-14 AS=4.41e-14 PD=9.1e-07 PS=9.1e-07
mXI4/XI4/MM_i_7 VDD! OP0<14> XI4/XI4/NET_3 VDD! PMOS_VTL L=5e-08 W=3.15e-07
+ AD=6.615e-14 AS=4.41e-14 PD=1.54e-06 PS=9.1e-07
mXI4/XI4/MM_i_1 XI4/MUX1 XI4/XI4/Z_NEG VDD! VDD! PMOS_VTL L=5e-08 W=6.3e-07
+ AD=6.615e-14 AS=6.615e-14 PD=1.47e-06 PS=1.54e-06
mXI4/XI5/XI0/MM_i_10 VSS! CTRL1B<14> XI4/XI5/XI0/X1 VSS! NMOS_VTL L=5e-08
+ W=2.1e-07 AD=2.94e-14 AS=2.205e-14 PD=7e-07 PS=6.3e-07
mXI4/XI5/XI0/MM_i_4 XI4/XI5/XI0/NET_1 XI4/MUX0 VSS! VSS! NMOS_VTL L=5e-08
+ W=2.1e-07 AD=2.94e-14 AS=2.94e-14 PD=7e-07 PS=7e-07
mXI4/XI5/XI0/MM_i_5 XI4/XI5/XI0/Z_NEG XI4/XI5/XI0/X1 XI4/XI5/XI0/NET_1 VSS!
+ NMOS_VTL L=5e-08 W=2.1e-07 AD=2.94e-14 AS=2.94e-14 PD=7e-07 PS=7e-07
mXI4/XI5/XI0/MM_i_2 XI4/XI5/XI0/Z_NEG CTRL1B<14> XI4/XI5/XI0/NET_0 VSS! NMOS_VTL
+ L=5e-08 W=2.1e-07 AD=2.94e-14 AS=2.94e-14 PD=7e-07 PS=7e-07
mXI4/XI5/XI0/MM_i_3 XI4/XI5/XI0/NET_0 XI4/MUX1 VSS! VSS! NMOS_VTL L=5e-08
+ W=2.1e-07 AD=2.94e-14 AS=4.375e-14 PD=7e-07 PS=1.11e-06
mXI4/XI5/XI0/MM_i_0 XI4/XI5/Z XI4/XI5/XI0/Z_NEG VSS! VSS! NMOS_VTL L=5e-08
+ W=4.15e-07 AD=4.3575e-14 AS=4.375e-14 PD=1.04e-06 PS=1.11e-06
mXI4/XI5/XI0/MM_i_11 VDD! CTRL1B<14> XI4/XI5/XI0/X1 VDD! PMOS_VTL L=5e-08
+ W=3.15e-07 AD=4.41e-14 AS=3.3075e-14 PD=9.1e-07 PS=8.4e-07
mXI4/XI5/XI0/MM_i_8 VDD! XI4/MUX0 XI4/XI5/XI0/NET_2 VDD! PMOS_VTL L=5e-08
+ W=3.15e-07 AD=4.41e-14 AS=4.41e-14 PD=9.1e-07 PS=9.1e-07
mXI4/XI5/XI0/MM_i_6 XI4/XI5/XI0/NET_2 CTRL1B<14> XI4/XI5/XI0/Z_NEG VDD! PMOS_VTL
+ L=5e-08 W=3.15e-07 AD=4.41e-14 AS=4.41e-14 PD=9.1e-07 PS=9.1e-07
mXI4/XI5/XI0/MM_i_9 XI4/XI5/XI0/NET_3 XI4/XI5/XI0/X1 XI4/XI5/XI0/Z_NEG VDD!
+ PMOS_VTL L=5e-08 W=3.15e-07 AD=4.41e-14 AS=4.41e-14 PD=9.1e-07 PS=9.1e-07
mXI4/XI5/XI0/MM_i_7 VDD! XI4/MUX1 XI4/XI5/XI0/NET_3 VDD! PMOS_VTL L=5e-08
+ W=3.15e-07 AD=6.615e-14 AS=4.41e-14 PD=1.54e-06 PS=9.1e-07
mXI4/XI5/XI0/MM_i_1 XI4/XI5/Z XI4/XI5/XI0/Z_NEG VDD! VDD! PMOS_VTL L=5e-08
+ W=6.3e-07 AD=6.615e-14 AS=6.615e-14 PD=1.47e-06 PS=1.54e-06
mXI4/XI3/MM_i_10 VSS! CTRL0B<14> XI4/XI3/X1 VSS! NMOS_VTL L=5e-08 W=2.1e-07
+ AD=2.94e-14 AS=2.205e-14 PD=7e-07 PS=6.3e-07
mXI4/XI3/MM_i_4 XI4/XI3/NET_1 XI4/NAND_OUT VSS! VSS! NMOS_VTL L=5e-08 W=2.1e-07
+ AD=2.94e-14 AS=2.94e-14 PD=7e-07 PS=7e-07
mXI4/XI3/MM_i_5 XI4/XI3/Z_NEG XI4/XI3/X1 XI4/XI3/NET_1 VSS! NMOS_VTL L=5e-08
+ W=2.1e-07 AD=2.94e-14 AS=2.94e-14 PD=7e-07 PS=7e-07
mXI4/XI3/MM_i_2 XI4/XI3/Z_NEG CTRL0B<14> XI4/XI3/NET_0 VSS! NMOS_VTL L=5e-08
+ W=2.1e-07 AD=2.94e-14 AS=2.94e-14 PD=7e-07 PS=7e-07
mXI4/XI3/MM_i_3 XI4/XI3/NET_0 XI4/XNOR_OUT VSS! VSS! NMOS_VTL L=5e-08 W=2.1e-07
+ AD=2.94e-14 AS=4.375e-14 PD=7e-07 PS=1.11e-06
mXI4/XI3/MM_i_0 XI4/MUX0 XI4/XI3/Z_NEG VSS! VSS! NMOS_VTL L=5e-08 W=4.15e-07
+ AD=4.3575e-14 AS=4.375e-14 PD=1.04e-06 PS=1.11e-06
mXI4/XI3/MM_i_11 VDD! CTRL0B<14> XI4/XI3/X1 VDD! PMOS_VTL L=5e-08 W=3.15e-07
+ AD=4.41e-14 AS=3.3075e-14 PD=9.1e-07 PS=8.4e-07
mXI4/XI3/MM_i_8 VDD! XI4/NAND_OUT XI4/XI3/NET_2 VDD! PMOS_VTL L=5e-08 W=3.15e-07
+ AD=4.41e-14 AS=4.41e-14 PD=9.1e-07 PS=9.1e-07
mXI4/XI3/MM_i_6 XI4/XI3/NET_2 CTRL0B<14> XI4/XI3/Z_NEG VDD! PMOS_VTL L=5e-08
+ W=3.15e-07 AD=4.41e-14 AS=4.41e-14 PD=9.1e-07 PS=9.1e-07
mXI4/XI3/MM_i_9 XI4/XI3/NET_3 XI4/XI3/X1 XI4/XI3/Z_NEG VDD! PMOS_VTL L=5e-08
+ W=3.15e-07 AD=4.41e-14 AS=4.41e-14 PD=9.1e-07 PS=9.1e-07
mXI4/XI3/MM_i_7 VDD! XI4/XNOR_OUT XI4/XI3/NET_3 VDD! PMOS_VTL L=5e-08 W=3.15e-07
+ AD=6.615e-14 AS=4.41e-14 PD=1.54e-06 PS=9.1e-07
mXI4/XI3/MM_i_1 XI4/MUX0 XI4/XI3/Z_NEG VDD! VDD! PMOS_VTL L=5e-08 W=6.3e-07
+ AD=6.615e-14 AS=6.615e-14 PD=1.47e-06 PS=1.54e-06
mXI19<1>/MM_i_2 VSS! CTRL1B<14> XI19<1>/Z_NEG VSS! NMOS_VTL L=5e-08 W=2.1e-07
+ AD=4.375e-14 AS=2.205e-14 PD=1.11e-06 PS=6.3e-07
mXI19<1>/MM_i_0 CTRL1B<15> XI19<1>/Z_NEG VSS! VSS! NMOS_VTL L=5e-08 W=4.15e-07
+ AD=4.3575e-14 AS=4.375e-14 PD=1.04e-06 PS=1.11e-06
mXI19<1>/MM_i_3 VDD! CTRL1B<14> XI19<1>/Z_NEG VDD! PMOS_VTL L=5e-08 W=3.15e-07
+ AD=6.615e-14 AS=3.3075e-14 PD=1.54e-06 PS=8.4e-07
mXI19<1>/MM_i_1 CTRL1B<15> XI19<1>/Z_NEG VDD! VDD! PMOS_VTL L=5e-08 W=6.3e-07
+ AD=6.615e-14 AS=6.615e-14 PD=1.47e-06 PS=1.54e-06
mXI19<0>/MM_i_2 VSS! CTRL0B<14> XI19<0>/Z_NEG VSS! NMOS_VTL L=5e-08 W=2.1e-07
+ AD=4.375e-14 AS=2.205e-14 PD=1.11e-06 PS=6.3e-07
mXI19<0>/MM_i_0 CTRL0B<15> XI19<0>/Z_NEG VSS! VSS! NMOS_VTL L=5e-08 W=4.15e-07
+ AD=4.3575e-14 AS=4.375e-14 PD=1.04e-06 PS=1.11e-06
mXI19<0>/MM_i_3 VDD! CTRL0B<14> XI19<0>/Z_NEG VDD! PMOS_VTL L=5e-08 W=3.15e-07
+ AD=6.615e-14 AS=3.3075e-14 PD=1.54e-06 PS=8.4e-07
mXI19<0>/MM_i_1 CTRL0B<15> XI19<0>/Z_NEG VDD! VDD! PMOS_VTL L=5e-08 W=6.3e-07
+ AD=6.615e-14 AS=6.615e-14 PD=1.47e-06 PS=1.54e-06
mXI5/XI0/MM_i_1 XI5/XI0/NET_0 OP0<12> VSS! VSS! NMOS_VTL L=5e-08 W=4.15e-07
+ AD=5.81e-14 AS=4.3575e-14 PD=1.11e-06 PS=1.04e-06
mXI5/XI0/MM_i_0 XI5/NAND_OUT OP1<12> XI5/XI0/NET_0 VSS! NMOS_VTL L=5e-08
+ W=4.15e-07 AD=4.3575e-14 AS=5.81e-14 PD=1.04e-06 PS=1.11e-06
mXI5/XI1/MM_i_0 XI5/XI1/NET_001 OP1<12> XI5/XI1/NET_000 VSS! NMOS_VTL L=5e-08
+ W=2.1e-07 AD=2.94e-14 AS=2.205e-14 PD=7e-07 PS=6.3e-07
mXI5/XI1/MM_i_5 VSS! OP0<12> XI5/XI1/NET_001 VSS! NMOS_VTL L=5e-08 W=2.1e-07
+ AD=4.48e-14 AS=2.94e-14 PD=1.12e-06 PS=7e-07
mXI5/XI1/MM_i_11 XI5/XI1/NET_002 XI5/XI1/NET_000 VSS! VSS! NMOS_VTL L=5e-08
+ W=4.15e-07 AD=5.81e-14 AS=4.48e-14 PD=1.11e-06 PS=1.12e-06
mXI5/XI1/MM_i_17 XI5/XNOR_OUT OP1<12> XI5/XI1/NET_002 VSS! NMOS_VTL L=5e-08
+ W=4.15e-07 AD=5.81e-14 AS=5.81e-14 PD=1.11e-06 PS=1.11e-06
mXI5/XI1/MM_i_23 XI5/XI1/NET_002 OP0<12> XI5/XNOR_OUT VSS! NMOS_VTL L=5e-08
+ W=4.15e-07 AD=4.3575e-14 AS=5.81e-14 PD=1.04e-06 PS=1.11e-06
mXI5/XI2/MM_i_1 XI5/NOR_OUT OP0<12> VSS! VSS! NMOS_VTL L=5e-08 W=4.15e-07
+ AD=5.81e-14 AS=4.3575e-14 PD=1.11e-06 PS=1.04e-06
mXI5/XI2/MM_i_0 VSS! OP1<12> XI5/NOR_OUT VSS! NMOS_VTL L=5e-08 W=4.15e-07
+ AD=4.3575e-14 AS=5.81e-14 PD=1.04e-06 PS=1.11e-06
mXI5/XI5/XI1/MM_i_0 LOGIC_OUT<12> XI5/XI5/Z VSS! VSS! NMOS_VTL L=5e-08
+ W=4.15e-07 AD=4.3575e-14 AS=4.3575e-14 PD=1.04e-06 PS=1.04e-06
mXI5/XI0/MM_i_3 XI5/NAND_OUT OP0<12> VDD! VDD! PMOS_VTL L=5e-08 W=6.3e-07
+ AD=8.82e-14 AS=6.615e-14 PD=1.54e-06 PS=1.47e-06
mXI5/XI0/MM_i_2 VDD! OP1<12> XI5/NAND_OUT VDD! PMOS_VTL L=5e-08 W=6.3e-07
+ AD=6.615e-14 AS=8.82e-14 PD=1.47e-06 PS=1.54e-06
mXI5/XI1/MM_i_29 XI5/XI1/NET_000 OP1<12> VDD! VDD! PMOS_VTL L=5e-08 W=3.15e-07
+ AD=4.41e-14 AS=3.3075e-14 PD=9.1e-07 PS=8.4e-07
mXI5/XI1/MM_i_36 VDD! OP0<12> XI5/XI1/NET_000 VDD! PMOS_VTL L=5e-08 W=3.15e-07
+ AD=6.7725e-14 AS=4.41e-14 PD=1.55e-06 PS=9.1e-07
mXI5/XI1/MM_i_42 XI5/XNOR_OUT XI5/XI1/NET_000 VDD! VDD! PMOS_VTL L=5e-08
+ W=6.3e-07 AD=8.82e-14 AS=6.7725e-14 PD=1.54e-06 PS=1.55e-06
mXI5/XI1/MM_i_48 XI5/XI1/NET_003 OP1<12> XI5/XNOR_OUT VDD! PMOS_VTL L=5e-08
+ W=6.3e-07 AD=8.82e-14 AS=8.82e-14 PD=1.54e-06 PS=1.54e-06
mXI5/XI1/MM_i_53 VDD! OP0<12> XI5/XI1/NET_003 VDD! PMOS_VTL L=5e-08 W=6.3e-07
+ AD=6.615e-14 AS=8.82e-14 PD=1.47e-06 PS=1.54e-06
mXI5/XI2/MM_i_3 XI5/XI2/NET_0 OP0<12> VDD! VDD! PMOS_VTL L=5e-08 W=6.3e-07
+ AD=8.82e-14 AS=6.615e-14 PD=1.54e-06 PS=1.47e-06
mXI5/XI2/MM_i_2 XI5/NOR_OUT OP1<12> XI5/XI2/NET_0 VDD! PMOS_VTL L=5e-08
+ W=6.3e-07 AD=6.615e-14 AS=8.82e-14 PD=1.47e-06 PS=1.54e-06
mXI5/XI5/XI1/MM_i_1 LOGIC_OUT<12> XI5/XI5/Z VDD! VDD! PMOS_VTL L=5e-08 W=6.3e-07
+ AD=6.615e-14 AS=6.615e-14 PD=1.47e-06 PS=1.47e-06
mXI5/XI4/MM_i_10 VSS! CTRL0B<12> XI5/XI4/X1 VSS! NMOS_VTL L=5e-08 W=2.1e-07
+ AD=2.94e-14 AS=2.205e-14 PD=7e-07 PS=6.3e-07
mXI5/XI4/MM_i_4 XI5/XI4/NET_1 XI5/NOR_OUT VSS! VSS! NMOS_VTL L=5e-08 W=2.1e-07
+ AD=2.94e-14 AS=2.94e-14 PD=7e-07 PS=7e-07
mXI5/XI4/MM_i_5 XI5/XI4/Z_NEG XI5/XI4/X1 XI5/XI4/NET_1 VSS! NMOS_VTL L=5e-08
+ W=2.1e-07 AD=2.94e-14 AS=2.94e-14 PD=7e-07 PS=7e-07
mXI5/XI4/MM_i_2 XI5/XI4/Z_NEG CTRL0B<12> XI5/XI4/NET_0 VSS! NMOS_VTL L=5e-08
+ W=2.1e-07 AD=2.94e-14 AS=2.94e-14 PD=7e-07 PS=7e-07
mXI5/XI4/MM_i_3 XI5/XI4/NET_0 OP0<12> VSS! VSS! NMOS_VTL L=5e-08 W=2.1e-07
+ AD=2.94e-14 AS=4.375e-14 PD=7e-07 PS=1.11e-06
mXI5/XI4/MM_i_0 XI5/MUX1 XI5/XI4/Z_NEG VSS! VSS! NMOS_VTL L=5e-08 W=4.15e-07
+ AD=4.3575e-14 AS=4.375e-14 PD=1.04e-06 PS=1.11e-06
mXI5/XI4/MM_i_11 VDD! CTRL0B<12> XI5/XI4/X1 VDD! PMOS_VTL L=5e-08 W=3.15e-07
+ AD=4.41e-14 AS=3.3075e-14 PD=9.1e-07 PS=8.4e-07
mXI5/XI4/MM_i_8 VDD! XI5/NOR_OUT XI5/XI4/NET_2 VDD! PMOS_VTL L=5e-08 W=3.15e-07
+ AD=4.41e-14 AS=4.41e-14 PD=9.1e-07 PS=9.1e-07
mXI5/XI4/MM_i_6 XI5/XI4/NET_2 CTRL0B<12> XI5/XI4/Z_NEG VDD! PMOS_VTL L=5e-08
+ W=3.15e-07 AD=4.41e-14 AS=4.41e-14 PD=9.1e-07 PS=9.1e-07
mXI5/XI4/MM_i_9 XI5/XI4/NET_3 XI5/XI4/X1 XI5/XI4/Z_NEG VDD! PMOS_VTL L=5e-08
+ W=3.15e-07 AD=4.41e-14 AS=4.41e-14 PD=9.1e-07 PS=9.1e-07
mXI5/XI4/MM_i_7 VDD! OP0<12> XI5/XI4/NET_3 VDD! PMOS_VTL L=5e-08 W=3.15e-07
+ AD=6.615e-14 AS=4.41e-14 PD=1.54e-06 PS=9.1e-07
mXI5/XI4/MM_i_1 XI5/MUX1 XI5/XI4/Z_NEG VDD! VDD! PMOS_VTL L=5e-08 W=6.3e-07
+ AD=6.615e-14 AS=6.615e-14 PD=1.47e-06 PS=1.54e-06
mXI5/XI5/XI0/MM_i_10 VSS! CTRL1B<12> XI5/XI5/XI0/X1 VSS! NMOS_VTL L=5e-08
+ W=2.1e-07 AD=2.94e-14 AS=2.205e-14 PD=7e-07 PS=6.3e-07
mXI5/XI5/XI0/MM_i_4 XI5/XI5/XI0/NET_1 XI5/MUX0 VSS! VSS! NMOS_VTL L=5e-08
+ W=2.1e-07 AD=2.94e-14 AS=2.94e-14 PD=7e-07 PS=7e-07
mXI5/XI5/XI0/MM_i_5 XI5/XI5/XI0/Z_NEG XI5/XI5/XI0/X1 XI5/XI5/XI0/NET_1 VSS!
+ NMOS_VTL L=5e-08 W=2.1e-07 AD=2.94e-14 AS=2.94e-14 PD=7e-07 PS=7e-07
mXI5/XI5/XI0/MM_i_2 XI5/XI5/XI0/Z_NEG CTRL1B<12> XI5/XI5/XI0/NET_0 VSS! NMOS_VTL
+ L=5e-08 W=2.1e-07 AD=2.94e-14 AS=2.94e-14 PD=7e-07 PS=7e-07
mXI5/XI5/XI0/MM_i_3 XI5/XI5/XI0/NET_0 XI5/MUX1 VSS! VSS! NMOS_VTL L=5e-08
+ W=2.1e-07 AD=2.94e-14 AS=4.375e-14 PD=7e-07 PS=1.11e-06
mXI5/XI5/XI0/MM_i_0 XI5/XI5/Z XI5/XI5/XI0/Z_NEG VSS! VSS! NMOS_VTL L=5e-08
+ W=4.15e-07 AD=4.3575e-14 AS=4.375e-14 PD=1.04e-06 PS=1.11e-06
mXI5/XI5/XI0/MM_i_11 VDD! CTRL1B<12> XI5/XI5/XI0/X1 VDD! PMOS_VTL L=5e-08
+ W=3.15e-07 AD=4.41e-14 AS=3.3075e-14 PD=9.1e-07 PS=8.4e-07
mXI5/XI5/XI0/MM_i_8 VDD! XI5/MUX0 XI5/XI5/XI0/NET_2 VDD! PMOS_VTL L=5e-08
+ W=3.15e-07 AD=4.41e-14 AS=4.41e-14 PD=9.1e-07 PS=9.1e-07
mXI5/XI5/XI0/MM_i_6 XI5/XI5/XI0/NET_2 CTRL1B<12> XI5/XI5/XI0/Z_NEG VDD! PMOS_VTL
+ L=5e-08 W=3.15e-07 AD=4.41e-14 AS=4.41e-14 PD=9.1e-07 PS=9.1e-07
mXI5/XI5/XI0/MM_i_9 XI5/XI5/XI0/NET_3 XI5/XI5/XI0/X1 XI5/XI5/XI0/Z_NEG VDD!
+ PMOS_VTL L=5e-08 W=3.15e-07 AD=4.41e-14 AS=4.41e-14 PD=9.1e-07 PS=9.1e-07
mXI5/XI5/XI0/MM_i_7 VDD! XI5/MUX1 XI5/XI5/XI0/NET_3 VDD! PMOS_VTL L=5e-08
+ W=3.15e-07 AD=6.615e-14 AS=4.41e-14 PD=1.54e-06 PS=9.1e-07
mXI5/XI5/XI0/MM_i_1 XI5/XI5/Z XI5/XI5/XI0/Z_NEG VDD! VDD! PMOS_VTL L=5e-08
+ W=6.3e-07 AD=6.615e-14 AS=6.615e-14 PD=1.47e-06 PS=1.54e-06
mXI5/XI3/MM_i_10 VSS! CTRL0B<12> XI5/XI3/X1 VSS! NMOS_VTL L=5e-08 W=2.1e-07
+ AD=2.94e-14 AS=2.205e-14 PD=7e-07 PS=6.3e-07
mXI5/XI3/MM_i_4 XI5/XI3/NET_1 XI5/NAND_OUT VSS! VSS! NMOS_VTL L=5e-08 W=2.1e-07
+ AD=2.94e-14 AS=2.94e-14 PD=7e-07 PS=7e-07
mXI5/XI3/MM_i_5 XI5/XI3/Z_NEG XI5/XI3/X1 XI5/XI3/NET_1 VSS! NMOS_VTL L=5e-08
+ W=2.1e-07 AD=2.94e-14 AS=2.94e-14 PD=7e-07 PS=7e-07
mXI5/XI3/MM_i_2 XI5/XI3/Z_NEG CTRL0B<12> XI5/XI3/NET_0 VSS! NMOS_VTL L=5e-08
+ W=2.1e-07 AD=2.94e-14 AS=2.94e-14 PD=7e-07 PS=7e-07
mXI5/XI3/MM_i_3 XI5/XI3/NET_0 XI5/XNOR_OUT VSS! VSS! NMOS_VTL L=5e-08 W=2.1e-07
+ AD=2.94e-14 AS=4.375e-14 PD=7e-07 PS=1.11e-06
mXI5/XI3/MM_i_0 XI5/MUX0 XI5/XI3/Z_NEG VSS! VSS! NMOS_VTL L=5e-08 W=4.15e-07
+ AD=4.3575e-14 AS=4.375e-14 PD=1.04e-06 PS=1.11e-06
mXI5/XI3/MM_i_11 VDD! CTRL0B<12> XI5/XI3/X1 VDD! PMOS_VTL L=5e-08 W=3.15e-07
+ AD=4.41e-14 AS=3.3075e-14 PD=9.1e-07 PS=8.4e-07
mXI5/XI3/MM_i_8 VDD! XI5/NAND_OUT XI5/XI3/NET_2 VDD! PMOS_VTL L=5e-08 W=3.15e-07
+ AD=4.41e-14 AS=4.41e-14 PD=9.1e-07 PS=9.1e-07
mXI5/XI3/MM_i_6 XI5/XI3/NET_2 CTRL0B<12> XI5/XI3/Z_NEG VDD! PMOS_VTL L=5e-08
+ W=3.15e-07 AD=4.41e-14 AS=4.41e-14 PD=9.1e-07 PS=9.1e-07
mXI5/XI3/MM_i_9 XI5/XI3/NET_3 XI5/XI3/X1 XI5/XI3/Z_NEG VDD! PMOS_VTL L=5e-08
+ W=3.15e-07 AD=4.41e-14 AS=4.41e-14 PD=9.1e-07 PS=9.1e-07
mXI5/XI3/MM_i_7 VDD! XI5/XNOR_OUT XI5/XI3/NET_3 VDD! PMOS_VTL L=5e-08 W=3.15e-07
+ AD=6.615e-14 AS=4.41e-14 PD=1.54e-06 PS=9.1e-07
mXI5/XI3/MM_i_1 XI5/MUX0 XI5/XI3/Z_NEG VDD! VDD! PMOS_VTL L=5e-08 W=6.3e-07
+ AD=6.615e-14 AS=6.615e-14 PD=1.47e-06 PS=1.54e-06
mXI20<1>/MM_i_2 VSS! CTRL1B<12> XI20<1>/Z_NEG VSS! NMOS_VTL L=5e-08 W=2.1e-07
+ AD=4.375e-14 AS=2.205e-14 PD=1.11e-06 PS=6.3e-07
mXI20<1>/MM_i_0 CTRL1B<13> XI20<1>/Z_NEG VSS! VSS! NMOS_VTL L=5e-08 W=4.15e-07
+ AD=4.3575e-14 AS=4.375e-14 PD=1.04e-06 PS=1.11e-06
mXI20<1>/MM_i_3 VDD! CTRL1B<12> XI20<1>/Z_NEG VDD! PMOS_VTL L=5e-08 W=3.15e-07
+ AD=6.615e-14 AS=3.3075e-14 PD=1.54e-06 PS=8.4e-07
mXI20<1>/MM_i_1 CTRL1B<13> XI20<1>/Z_NEG VDD! VDD! PMOS_VTL L=5e-08 W=6.3e-07
+ AD=6.615e-14 AS=6.615e-14 PD=1.47e-06 PS=1.54e-06
mXI20<0>/MM_i_2 VSS! CTRL0B<12> XI20<0>/Z_NEG VSS! NMOS_VTL L=5e-08 W=2.1e-07
+ AD=4.375e-14 AS=2.205e-14 PD=1.11e-06 PS=6.3e-07
mXI20<0>/MM_i_0 CTRL0B<13> XI20<0>/Z_NEG VSS! VSS! NMOS_VTL L=5e-08 W=4.15e-07
+ AD=4.3575e-14 AS=4.375e-14 PD=1.04e-06 PS=1.11e-06
mXI20<0>/MM_i_3 VDD! CTRL0B<12> XI20<0>/Z_NEG VDD! PMOS_VTL L=5e-08 W=3.15e-07
+ AD=6.615e-14 AS=3.3075e-14 PD=1.54e-06 PS=8.4e-07
mXI20<0>/MM_i_1 CTRL0B<13> XI20<0>/Z_NEG VDD! VDD! PMOS_VTL L=5e-08 W=6.3e-07
+ AD=6.615e-14 AS=6.615e-14 PD=1.47e-06 PS=1.54e-06
mXI6/XI0/MM_i_1 XI6/XI0/NET_0 OP0<13> VSS! VSS! NMOS_VTL L=5e-08 W=4.15e-07
+ AD=5.81e-14 AS=4.3575e-14 PD=1.11e-06 PS=1.04e-06
mXI6/XI0/MM_i_0 XI6/NAND_OUT OP1<13> XI6/XI0/NET_0 VSS! NMOS_VTL L=5e-08
+ W=4.15e-07 AD=4.3575e-14 AS=5.81e-14 PD=1.04e-06 PS=1.11e-06
mXI6/XI1/MM_i_0 XI6/XI1/NET_001 OP1<13> XI6/XI1/NET_000 VSS! NMOS_VTL L=5e-08
+ W=2.1e-07 AD=2.94e-14 AS=2.205e-14 PD=7e-07 PS=6.3e-07
mXI6/XI1/MM_i_5 VSS! OP0<13> XI6/XI1/NET_001 VSS! NMOS_VTL L=5e-08 W=2.1e-07
+ AD=4.48e-14 AS=2.94e-14 PD=1.12e-06 PS=7e-07
mXI6/XI1/MM_i_11 XI6/XI1/NET_002 XI6/XI1/NET_000 VSS! VSS! NMOS_VTL L=5e-08
+ W=4.15e-07 AD=5.81e-14 AS=4.48e-14 PD=1.11e-06 PS=1.12e-06
mXI6/XI1/MM_i_17 XI6/XNOR_OUT OP1<13> XI6/XI1/NET_002 VSS! NMOS_VTL L=5e-08
+ W=4.15e-07 AD=5.81e-14 AS=5.81e-14 PD=1.11e-06 PS=1.11e-06
mXI6/XI1/MM_i_23 XI6/XI1/NET_002 OP0<13> XI6/XNOR_OUT VSS! NMOS_VTL L=5e-08
+ W=4.15e-07 AD=4.3575e-14 AS=5.81e-14 PD=1.04e-06 PS=1.11e-06
mXI6/XI2/MM_i_1 XI6/NOR_OUT OP0<13> VSS! VSS! NMOS_VTL L=5e-08 W=4.15e-07
+ AD=5.81e-14 AS=4.3575e-14 PD=1.11e-06 PS=1.04e-06
mXI6/XI2/MM_i_0 VSS! OP1<13> XI6/NOR_OUT VSS! NMOS_VTL L=5e-08 W=4.15e-07
+ AD=4.3575e-14 AS=5.81e-14 PD=1.04e-06 PS=1.11e-06
mXI6/XI5/XI1/MM_i_0 LOGIC_OUT<13> XI6/XI5/Z VSS! VSS! NMOS_VTL L=5e-08
+ W=4.15e-07 AD=4.3575e-14 AS=4.3575e-14 PD=1.04e-06 PS=1.04e-06
mXI6/XI0/MM_i_3 XI6/NAND_OUT OP0<13> VDD! VDD! PMOS_VTL L=5e-08 W=6.3e-07
+ AD=8.82e-14 AS=6.615e-14 PD=1.54e-06 PS=1.47e-06
mXI6/XI0/MM_i_2 VDD! OP1<13> XI6/NAND_OUT VDD! PMOS_VTL L=5e-08 W=6.3e-07
+ AD=6.615e-14 AS=8.82e-14 PD=1.47e-06 PS=1.54e-06
mXI6/XI1/MM_i_29 XI6/XI1/NET_000 OP1<13> VDD! VDD! PMOS_VTL L=5e-08 W=3.15e-07
+ AD=4.41e-14 AS=3.3075e-14 PD=9.1e-07 PS=8.4e-07
mXI6/XI1/MM_i_36 VDD! OP0<13> XI6/XI1/NET_000 VDD! PMOS_VTL L=5e-08 W=3.15e-07
+ AD=6.7725e-14 AS=4.41e-14 PD=1.55e-06 PS=9.1e-07
mXI6/XI1/MM_i_42 XI6/XNOR_OUT XI6/XI1/NET_000 VDD! VDD! PMOS_VTL L=5e-08
+ W=6.3e-07 AD=8.82e-14 AS=6.7725e-14 PD=1.54e-06 PS=1.55e-06
mXI6/XI1/MM_i_48 XI6/XI1/NET_003 OP1<13> XI6/XNOR_OUT VDD! PMOS_VTL L=5e-08
+ W=6.3e-07 AD=8.82e-14 AS=8.82e-14 PD=1.54e-06 PS=1.54e-06
mXI6/XI1/MM_i_53 VDD! OP0<13> XI6/XI1/NET_003 VDD! PMOS_VTL L=5e-08 W=6.3e-07
+ AD=6.615e-14 AS=8.82e-14 PD=1.47e-06 PS=1.54e-06
mXI6/XI2/MM_i_3 XI6/XI2/NET_0 OP0<13> VDD! VDD! PMOS_VTL L=5e-08 W=6.3e-07
+ AD=8.82e-14 AS=6.615e-14 PD=1.54e-06 PS=1.47e-06
mXI6/XI2/MM_i_2 XI6/NOR_OUT OP1<13> XI6/XI2/NET_0 VDD! PMOS_VTL L=5e-08
+ W=6.3e-07 AD=6.615e-14 AS=8.82e-14 PD=1.47e-06 PS=1.54e-06
mXI6/XI5/XI1/MM_i_1 LOGIC_OUT<13> XI6/XI5/Z VDD! VDD! PMOS_VTL L=5e-08 W=6.3e-07
+ AD=6.615e-14 AS=6.615e-14 PD=1.47e-06 PS=1.47e-06
mXI6/XI4/MM_i_10 VSS! CTRL0B<13> XI6/XI4/X1 VSS! NMOS_VTL L=5e-08 W=2.1e-07
+ AD=2.94e-14 AS=2.205e-14 PD=7e-07 PS=6.3e-07
mXI6/XI4/MM_i_4 XI6/XI4/NET_1 XI6/NOR_OUT VSS! VSS! NMOS_VTL L=5e-08 W=2.1e-07
+ AD=2.94e-14 AS=2.94e-14 PD=7e-07 PS=7e-07
mXI6/XI4/MM_i_5 XI6/XI4/Z_NEG XI6/XI4/X1 XI6/XI4/NET_1 VSS! NMOS_VTL L=5e-08
+ W=2.1e-07 AD=2.94e-14 AS=2.94e-14 PD=7e-07 PS=7e-07
mXI6/XI4/MM_i_2 XI6/XI4/Z_NEG CTRL0B<13> XI6/XI4/NET_0 VSS! NMOS_VTL L=5e-08
+ W=2.1e-07 AD=2.94e-14 AS=2.94e-14 PD=7e-07 PS=7e-07
mXI6/XI4/MM_i_3 XI6/XI4/NET_0 OP0<13> VSS! VSS! NMOS_VTL L=5e-08 W=2.1e-07
+ AD=2.94e-14 AS=4.375e-14 PD=7e-07 PS=1.11e-06
mXI6/XI4/MM_i_0 XI6/MUX1 XI6/XI4/Z_NEG VSS! VSS! NMOS_VTL L=5e-08 W=4.15e-07
+ AD=4.3575e-14 AS=4.375e-14 PD=1.04e-06 PS=1.11e-06
mXI6/XI4/MM_i_11 VDD! CTRL0B<13> XI6/XI4/X1 VDD! PMOS_VTL L=5e-08 W=3.15e-07
+ AD=4.41e-14 AS=3.3075e-14 PD=9.1e-07 PS=8.4e-07
mXI6/XI4/MM_i_8 VDD! XI6/NOR_OUT XI6/XI4/NET_2 VDD! PMOS_VTL L=5e-08 W=3.15e-07
+ AD=4.41e-14 AS=4.41e-14 PD=9.1e-07 PS=9.1e-07
mXI6/XI4/MM_i_6 XI6/XI4/NET_2 CTRL0B<13> XI6/XI4/Z_NEG VDD! PMOS_VTL L=5e-08
+ W=3.15e-07 AD=4.41e-14 AS=4.41e-14 PD=9.1e-07 PS=9.1e-07
mXI6/XI4/MM_i_9 XI6/XI4/NET_3 XI6/XI4/X1 XI6/XI4/Z_NEG VDD! PMOS_VTL L=5e-08
+ W=3.15e-07 AD=4.41e-14 AS=4.41e-14 PD=9.1e-07 PS=9.1e-07
mXI6/XI4/MM_i_7 VDD! OP0<13> XI6/XI4/NET_3 VDD! PMOS_VTL L=5e-08 W=3.15e-07
+ AD=6.615e-14 AS=4.41e-14 PD=1.54e-06 PS=9.1e-07
mXI6/XI4/MM_i_1 XI6/MUX1 XI6/XI4/Z_NEG VDD! VDD! PMOS_VTL L=5e-08 W=6.3e-07
+ AD=6.615e-14 AS=6.615e-14 PD=1.47e-06 PS=1.54e-06
mXI6/XI5/XI0/MM_i_10 VSS! CTRL1B<13> XI6/XI5/XI0/X1 VSS! NMOS_VTL L=5e-08
+ W=2.1e-07 AD=2.94e-14 AS=2.205e-14 PD=7e-07 PS=6.3e-07
mXI6/XI5/XI0/MM_i_4 XI6/XI5/XI0/NET_1 XI6/MUX0 VSS! VSS! NMOS_VTL L=5e-08
+ W=2.1e-07 AD=2.94e-14 AS=2.94e-14 PD=7e-07 PS=7e-07
mXI6/XI5/XI0/MM_i_5 XI6/XI5/XI0/Z_NEG XI6/XI5/XI0/X1 XI6/XI5/XI0/NET_1 VSS!
+ NMOS_VTL L=5e-08 W=2.1e-07 AD=2.94e-14 AS=2.94e-14 PD=7e-07 PS=7e-07
mXI6/XI5/XI0/MM_i_2 XI6/XI5/XI0/Z_NEG CTRL1B<13> XI6/XI5/XI0/NET_0 VSS! NMOS_VTL
+ L=5e-08 W=2.1e-07 AD=2.94e-14 AS=2.94e-14 PD=7e-07 PS=7e-07
mXI6/XI5/XI0/MM_i_3 XI6/XI5/XI0/NET_0 XI6/MUX1 VSS! VSS! NMOS_VTL L=5e-08
+ W=2.1e-07 AD=2.94e-14 AS=4.375e-14 PD=7e-07 PS=1.11e-06
mXI6/XI5/XI0/MM_i_0 XI6/XI5/Z XI6/XI5/XI0/Z_NEG VSS! VSS! NMOS_VTL L=5e-08
+ W=4.15e-07 AD=4.3575e-14 AS=4.375e-14 PD=1.04e-06 PS=1.11e-06