* File: /gscratch/ece/courses/476/jarenas/jarenas_git/cad6/netlist/PEX/ALU_ARITHMETIC_UNIT_16B.pex.netlist
* Created: Fri Dec  3 18:57:23 2021
* Program "Calibre xRC"
* Version "v2021.3_35.19"
* 
.subckt ALU_ARITHMETIC_UNIT_16B  OP1<0> CTRL<0> LOGIC_OUT<0> OP1<1> LOGIC_OUT<1>
+ OP1<2> LOGIC_OUT<2> OP1<3> LOGIC_OUT<3> VDD! VSS! OP0<0> OP0<1> OP0<2> OP0<3>
+ ARITHMETIC_OUT<0> LOGIC_OUT_BUF<0> ARITHMETIC_OUT<1> LOGIC_OUT_BUF<1>
+ ARITHMETIC_OUT<2> LOGIC_OUT_BUF<2> ARITHMETIC_OUT<3> LOGIC_OUT_BUF<3>
+ OP0_TEMP<15> CO OP0<4> OP1<4> ARITHMETIC_OUT<4> LOGIC_OUT_BUF<4> LOGIC_OUT<4>
+ OP0<5> OP1<5> ARITHMETIC_OUT<5> LOGIC_OUT_BUF<5> LOGIC_OUT<5> OP0<6> OP1<6>
+ ARITHMETIC_OUT<6> LOGIC_OUT_BUF<6> LOGIC_OUT<6> OP0<7> OP1<7>
+ ARITHMETIC_OUT<7> LOGIC_OUT_BUF<7> LOGIC_OUT<7> OP0<8> OP1<8>
+ ARITHMETIC_OUT<8> LOGIC_OUT_BUF<8> LOGIC_OUT<8> OP0<9> OP1<9>
+ ARITHMETIC_OUT<9> LOGIC_OUT_BUF<9> LOGIC_OUT<9> OP0<10> OP1<10>
+ ARITHMETIC_OUT<10> LOGIC_OUT_BUF<10> LOGIC_OUT<10> OP0<11> OP1<11>
+ ARITHMETIC_OUT<11> LOGIC_OUT_BUF<11> LOGIC_OUT<11> OP0<12> OP1<12>
+ ARITHMETIC_OUT<12> LOGIC_OUT_BUF<12> LOGIC_OUT<12> OP0<13> OP1<13>
+ ARITHMETIC_OUT<13> LOGIC_OUT_BUF<13> LOGIC_OUT<13> OP0<14> OP1<14>
+ ARITHMETIC_OUT<14> LOGIC_OUT_BUF<14> LOGIC_OUT<14> OP0<15> OP1<15>
+ ARITHMETIC_OUT<15> LOGIC_OUT_BUF<15> LOGIC_OUT<15>
* 
mXI3/XI14/MM_i_2 VSS! CTRL<0> XI3/XI14/Z_NEG VSS! NMOS_VTL L=5e-08 W=2.1e-07
+ AD=4.375e-14 AS=2.205e-14 PD=1.11e-06 PS=6.3e-07
mXI3/XI14/MM_i_0 XI3/CTRL_BUF<1> XI3/XI14/Z_NEG VSS! VSS! NMOS_VTL L=5e-08
+ W=4.15e-07 AD=4.3575e-14 AS=4.375e-14 PD=1.04e-06 PS=1.11e-06
mXI3/XI14/MM_i_3 VDD! CTRL<0> XI3/XI14/Z_NEG VDD! PMOS_VTL L=5e-08 W=3.15e-07
+ AD=6.615e-14 AS=3.3075e-14 PD=1.54e-06 PS=8.4e-07
mXI3/XI14/MM_i_1 XI3/CTRL_BUF<1> XI3/XI14/Z_NEG VDD! VDD! PMOS_VTL L=5e-08
+ W=6.3e-07 AD=6.615e-14 AS=6.615e-14 PD=1.47e-06 PS=1.54e-06
mXI3/XI19<0>/MM_i_2 VSS! LOGIC_OUT<0> XI3/XI19<0>/Z_NEG VSS! NMOS_VTL L=5e-08
+ W=2.1e-07 AD=4.375e-14 AS=2.205e-14 PD=1.11e-06 PS=6.3e-07
mXI3/XI19<0>/MM_i_0 LOGIC_OUT_BUF<0> XI3/XI19<0>/Z_NEG VSS! VSS! NMOS_VTL
+ L=5e-08 W=4.15e-07 AD=4.3575e-14 AS=4.375e-14 PD=1.04e-06 PS=1.11e-06
mXI3/XI19<0>/MM_i_3 VDD! LOGIC_OUT<0> XI3/XI19<0>/Z_NEG VDD! PMOS_VTL L=5e-08
+ W=3.15e-07 AD=6.615e-14 AS=3.3075e-14 PD=1.54e-06 PS=8.4e-07
mXI3/XI19<0>/MM_i_1 LOGIC_OUT_BUF<0> XI3/XI19<0>/Z_NEG VDD! VDD! PMOS_VTL
+ L=5e-08 W=6.3e-07 AD=6.615e-14 AS=6.615e-14 PD=1.47e-06 PS=1.54e-06
mXI3/XI15/MM_i_2 VSS! XI3/CTRL_BUF<1> XI3/XI15/Z_NEG VSS! NMOS_VTL L=5e-08
+ W=2.1e-07 AD=4.375e-14 AS=2.205e-14 PD=1.11e-06 PS=6.3e-07
mXI3/XI15/MM_i_0 XI3/CTRL_BUF<2> XI3/XI15/Z_NEG VSS! VSS! NMOS_VTL L=5e-08
+ W=4.15e-07 AD=4.3575e-14 AS=4.375e-14 PD=1.04e-06 PS=1.11e-06
mXI3/XI15/MM_i_3 VDD! XI3/CTRL_BUF<1> XI3/XI15/Z_NEG VDD! PMOS_VTL L=5e-08
+ W=3.15e-07 AD=6.615e-14 AS=3.3075e-14 PD=1.54e-06 PS=8.4e-07
mXI3/XI15/MM_i_1 XI3/CTRL_BUF<2> XI3/XI15/Z_NEG VDD! VDD! PMOS_VTL L=5e-08
+ W=6.3e-07 AD=6.615e-14 AS=6.615e-14 PD=1.47e-06 PS=1.54e-06
mXI3/XI19<1>/MM_i_2 VSS! LOGIC_OUT<1> XI3/XI19<1>/Z_NEG VSS! NMOS_VTL L=5e-08
+ W=2.1e-07 AD=4.375e-14 AS=2.205e-14 PD=1.11e-06 PS=6.3e-07
mXI3/XI19<1>/MM_i_0 LOGIC_OUT_BUF<1> XI3/XI19<1>/Z_NEG VSS! VSS! NMOS_VTL
+ L=5e-08 W=4.15e-07 AD=4.3575e-14 AS=4.375e-14 PD=1.04e-06 PS=1.11e-06
mXI3/XI19<1>/MM_i_3 VDD! LOGIC_OUT<1> XI3/XI19<1>/Z_NEG VDD! PMOS_VTL L=5e-08
+ W=3.15e-07 AD=6.615e-14 AS=3.3075e-14 PD=1.54e-06 PS=8.4e-07
mXI3/XI19<1>/MM_i_1 LOGIC_OUT_BUF<1> XI3/XI19<1>/Z_NEG VDD! VDD! PMOS_VTL
+ L=5e-08 W=6.3e-07 AD=6.615e-14 AS=6.615e-14 PD=1.47e-06 PS=1.54e-06
mXI3/XI16/MM_i_2 VSS! XI3/CTRL_BUF<2> XI3/XI16/Z_NEG VSS! NMOS_VTL L=5e-08
+ W=2.1e-07 AD=4.375e-14 AS=2.205e-14 PD=1.11e-06 PS=6.3e-07
mXI3/XI16/MM_i_0 XI3/CTRL_BUF<3> XI3/XI16/Z_NEG VSS! VSS! NMOS_VTL L=5e-08
+ W=4.15e-07 AD=4.3575e-14 AS=4.375e-14 PD=1.04e-06 PS=1.11e-06
mXI3/XI16/MM_i_3 VDD! XI3/CTRL_BUF<2> XI3/XI16/Z_NEG VDD! PMOS_VTL L=5e-08
+ W=3.15e-07 AD=6.615e-14 AS=3.3075e-14 PD=1.54e-06 PS=8.4e-07
mXI3/XI16/MM_i_1 XI3/CTRL_BUF<3> XI3/XI16/Z_NEG VDD! VDD! PMOS_VTL L=5e-08
+ W=6.3e-07 AD=6.615e-14 AS=6.615e-14 PD=1.47e-06 PS=1.54e-06
mXI3/XI19<2>/MM_i_2 VSS! LOGIC_OUT<2> XI3/XI19<2>/Z_NEG VSS! NMOS_VTL L=5e-08
+ W=2.1e-07 AD=4.375e-14 AS=2.205e-14 PD=1.11e-06 PS=6.3e-07
mXI3/XI19<2>/MM_i_0 LOGIC_OUT_BUF<2> XI3/XI19<2>/Z_NEG VSS! VSS! NMOS_VTL
+ L=5e-08 W=4.15e-07 AD=4.3575e-14 AS=4.375e-14 PD=1.04e-06 PS=1.11e-06
mXI3/XI19<2>/MM_i_3 VDD! LOGIC_OUT<2> XI3/XI19<2>/Z_NEG VDD! PMOS_VTL L=5e-08
+ W=3.15e-07 AD=6.615e-14 AS=3.3075e-14 PD=1.54e-06 PS=8.4e-07
mXI3/XI19<2>/MM_i_1 LOGIC_OUT_BUF<2> XI3/XI19<2>/Z_NEG VDD! VDD! PMOS_VTL
+ L=5e-08 W=6.3e-07 AD=6.615e-14 AS=6.615e-14 PD=1.47e-06 PS=1.54e-06
mXI3/XI13/MM_i_2 VSS! XI3/CTRL_BUF<3> XI3/XI13/Z_NEG VSS! NMOS_VTL L=5e-08
+ W=2.1e-07 AD=4.375e-14 AS=2.205e-14 PD=1.11e-06 PS=6.3e-07
mXI3/XI13/MM_i_0 NET3 XI3/XI13/Z_NEG VSS! VSS! NMOS_VTL L=5e-08 W=4.15e-07
+ AD=4.3575e-14 AS=4.375e-14 PD=1.04e-06 PS=1.11e-06
mXI3/XI13/MM_i_3 VDD! XI3/CTRL_BUF<3> XI3/XI13/Z_NEG VDD! PMOS_VTL L=5e-08
+ W=3.15e-07 AD=6.615e-14 AS=3.3075e-14 PD=1.54e-06 PS=8.4e-07
mXI3/XI13/MM_i_1 NET3 XI3/XI13/Z_NEG VDD! VDD! PMOS_VTL L=5e-08 W=6.3e-07
+ AD=6.615e-14 AS=6.615e-14 PD=1.47e-06 PS=1.54e-06
mXI3/XI19<3>/MM_i_2 VSS! LOGIC_OUT<3> XI3/XI19<3>/Z_NEG VSS! NMOS_VTL L=5e-08
+ W=2.1e-07 AD=4.375e-14 AS=2.205e-14 PD=1.11e-06 PS=6.3e-07
mXI3/XI19<3>/MM_i_0 LOGIC_OUT_BUF<3> XI3/XI19<3>/Z_NEG VSS! VSS! NMOS_VTL
+ L=5e-08 W=4.15e-07 AD=4.3575e-14 AS=4.375e-14 PD=1.04e-06 PS=1.11e-06
mXI3/XI19<3>/MM_i_3 VDD! LOGIC_OUT<3> XI3/XI19<3>/Z_NEG VDD! PMOS_VTL L=5e-08
+ W=3.15e-07 AD=6.615e-14 AS=3.3075e-14 PD=1.54e-06 PS=8.4e-07
mXI3/XI19<3>/MM_i_1 LOGIC_OUT_BUF<3> XI3/XI19<3>/Z_NEG VDD! VDD! PMOS_VTL
+ L=5e-08 W=6.3e-07 AD=6.615e-14 AS=6.615e-14 PD=1.47e-06 PS=1.54e-06
mXI3/XI29/MM_i_2 VSS! XI3/NET1 XI3/XI29/Z_NEG VSS! NMOS_VTL L=5e-08 W=2.1e-07
+ AD=4.375e-14 AS=2.205e-14 PD=1.11e-06 PS=6.3e-07
mXI3/XI29/MM_i_0 NET1 XI3/XI29/Z_NEG VSS! VSS! NMOS_VTL L=5e-08 W=4.15e-07
+ AD=4.3575e-14 AS=4.375e-14 PD=1.04e-06 PS=1.11e-06
mXI3/XI29/MM_i_3 VDD! XI3/NET1 XI3/XI29/Z_NEG VDD! PMOS_VTL L=5e-08 W=3.15e-07
+ AD=6.615e-14 AS=3.3075e-14 PD=1.54e-06 PS=8.4e-07
mXI3/XI29/MM_i_1 NET1 XI3/XI29/Z_NEG VDD! VDD! PMOS_VTL L=5e-08 W=6.3e-07
+ AD=6.615e-14 AS=6.615e-14 PD=1.47e-06 PS=1.54e-06
mXI3/XI9/MM_i_0 XI3/XI9/NET_000 CTRL<0> VSS! VSS! NMOS_VTL L=5e-08 W=2.1e-07
+ AD=2.94e-14 AS=2.205e-14 PD=7e-07 PS=6.3e-07
mXI3/XI9/MM_i_7 VSS! OP0<0> XI3/XI9/NET_000 VSS! NMOS_VTL L=5e-08 W=2.1e-07
+ AD=4.48e-14 AS=2.94e-14 PD=1.12e-06 PS=7e-07
mXI3/XI9/MM_i_13 XI3/OP0_TEMP<0> XI3/XI9/NET_000 VSS! VSS! NMOS_VTL L=5e-08
+ W=4.15e-07 AD=5.81e-14 AS=4.48e-14 PD=1.11e-06 PS=1.12e-06
mXI3/XI9/MM_i_19 XI3/XI9/NET_001 CTRL<0> XI3/OP0_TEMP<0> VSS! NMOS_VTL L=5e-08
+ W=4.15e-07 AD=5.81e-14 AS=5.81e-14 PD=1.11e-06 PS=1.11e-06
mXI3/XI9/MM_i_24 VSS! OP0<0> XI3/XI9/NET_001 VSS! NMOS_VTL L=5e-08 W=4.15e-07
+ AD=4.3575e-14 AS=5.81e-14 PD=1.04e-06 PS=1.11e-06
mXI3/XI9/MM_i_30 XI3/XI9/NET_002 CTRL<0> XI3/XI9/NET_000 VDD! PMOS_VTL L=5e-08
+ W=3.15e-07 AD=4.41e-14 AS=3.3075e-14 PD=9.1e-07 PS=8.4e-07
mXI3/XI9/MM_i_35 VDD! OP0<0> XI3/XI9/NET_002 VDD! PMOS_VTL L=5e-08 W=3.15e-07
+ AD=6.7725e-14 AS=4.41e-14 PD=1.55e-06 PS=9.1e-07
mXI3/XI9/MM_i_41 XI3/XI9/NET_003 XI3/XI9/NET_000 VDD! VDD! PMOS_VTL L=5e-08
+ W=6.3e-07 AD=8.82e-14 AS=6.7725e-14 PD=1.54e-06 PS=1.55e-06
mXI3/XI9/MM_i_47 XI3/OP0_TEMP<0> CTRL<0> XI3/XI9/NET_003 VDD! PMOS_VTL L=5e-08
+ W=6.3e-07 AD=8.82e-14 AS=8.82e-14 PD=1.54e-06 PS=1.54e-06
mXI3/XI9/MM_i_53 XI3/XI9/NET_003 OP0<0> XI3/OP0_TEMP<0> VDD! PMOS_VTL L=5e-08
+ W=6.3e-07 AD=6.615e-14 AS=8.82e-14 PD=1.47e-06 PS=1.54e-06
mXI3/XI10/MM_i_0 XI3/XI10/NET_000 XI3/CTRL_BUF<1> VSS! VSS! NMOS_VTL L=5e-08
+ W=2.1e-07 AD=2.94e-14 AS=2.205e-14 PD=7e-07 PS=6.3e-07
mXI3/XI10/MM_i_7 VSS! OP0<1> XI3/XI10/NET_000 VSS! NMOS_VTL L=5e-08 W=2.1e-07
+ AD=4.48e-14 AS=2.94e-14 PD=1.12e-06 PS=7e-07
mXI3/XI10/MM_i_13 XI3/OP0_TEMP<1> XI3/XI10/NET_000 VSS! VSS! NMOS_VTL L=5e-08
+ W=4.15e-07 AD=5.81e-14 AS=4.48e-14 PD=1.11e-06 PS=1.12e-06
mXI3/XI10/MM_i_19 XI3/XI10/NET_001 XI3/CTRL_BUF<1> XI3/OP0_TEMP<1> VSS! NMOS_VTL
+ L=5e-08 W=4.15e-07 AD=5.81e-14 AS=5.81e-14 PD=1.11e-06 PS=1.11e-06
mXI3/XI10/MM_i_24 VSS! OP0<1> XI3/XI10/NET_001 VSS! NMOS_VTL L=5e-08 W=4.15e-07
+ AD=4.3575e-14 AS=5.81e-14 PD=1.04e-06 PS=1.11e-06
mXI3/XI10/MM_i_30 XI3/XI10/NET_002 XI3/CTRL_BUF<1> XI3/XI10/NET_000 VDD!
+ PMOS_VTL L=5e-08 W=3.15e-07 AD=4.41e-14 AS=3.3075e-14 PD=9.1e-07 PS=8.4e-07
mXI3/XI10/MM_i_35 VDD! OP0<1> XI3/XI10/NET_002 VDD! PMOS_VTL L=5e-08 W=3.15e-07
+ AD=6.7725e-14 AS=4.41e-14 PD=1.55e-06 PS=9.1e-07
mXI3/XI10/MM_i_41 XI3/XI10/NET_003 XI3/XI10/NET_000 VDD! VDD! PMOS_VTL L=5e-08
+ W=6.3e-07 AD=8.82e-14 AS=6.7725e-14 PD=1.54e-06 PS=1.55e-06
mXI3/XI10/MM_i_47 XI3/OP0_TEMP<1> XI3/CTRL_BUF<1> XI3/XI10/NET_003 VDD! PMOS_VTL
+ L=5e-08 W=6.3e-07 AD=8.82e-14 AS=8.82e-14 PD=1.54e-06 PS=1.54e-06
mXI3/XI10/MM_i_53 XI3/XI10/NET_003 OP0<1> XI3/OP0_TEMP<1> VDD! PMOS_VTL L=5e-08
+ W=6.3e-07 AD=6.615e-14 AS=8.82e-14 PD=1.47e-06 PS=1.54e-06
mXI3/XI11/MM_i_0 XI3/XI11/NET_000 XI3/CTRL_BUF<2> VSS! VSS! NMOS_VTL L=5e-08
+ W=2.1e-07 AD=2.94e-14 AS=2.205e-14 PD=7e-07 PS=6.3e-07
mXI3/XI11/MM_i_7 VSS! OP0<2> XI3/XI11/NET_000 VSS! NMOS_VTL L=5e-08 W=2.1e-07
+ AD=4.48e-14 AS=2.94e-14 PD=1.12e-06 PS=7e-07
mXI3/XI11/MM_i_13 XI3/OP0_TEMP<2> XI3/XI11/NET_000 VSS! VSS! NMOS_VTL L=5e-08
+ W=4.15e-07 AD=5.81e-14 AS=4.48e-14 PD=1.11e-06 PS=1.12e-06
mXI3/XI11/MM_i_19 XI3/XI11/NET_001 XI3/CTRL_BUF<2> XI3/OP0_TEMP<2> VSS! NMOS_VTL
+ L=5e-08 W=4.15e-07 AD=5.81e-14 AS=5.81e-14 PD=1.11e-06 PS=1.11e-06
mXI3/XI11/MM_i_24 VSS! OP0<2> XI3/XI11/NET_001 VSS! NMOS_VTL L=5e-08 W=4.15e-07
+ AD=4.3575e-14 AS=5.81e-14 PD=1.04e-06 PS=1.11e-06
mXI3/XI11/MM_i_30 XI3/XI11/NET_002 XI3/CTRL_BUF<2> XI3/XI11/NET_000 VDD!
+ PMOS_VTL L=5e-08 W=3.15e-07 AD=4.41e-14 AS=3.3075e-14 PD=9.1e-07 PS=8.4e-07
mXI3/XI11/MM_i_35 VDD! OP0<2> XI3/XI11/NET_002 VDD! PMOS_VTL L=5e-08 W=3.15e-07
+ AD=6.7725e-14 AS=4.41e-14 PD=1.55e-06 PS=9.1e-07
mXI3/XI11/MM_i_41 XI3/XI11/NET_003 XI3/XI11/NET_000 VDD! VDD! PMOS_VTL L=5e-08
+ W=6.3e-07 AD=8.82e-14 AS=6.7725e-14 PD=1.54e-06 PS=1.55e-06
mXI3/XI11/MM_i_47 XI3/OP0_TEMP<2> XI3/CTRL_BUF<2> XI3/XI11/NET_003 VDD! PMOS_VTL
+ L=5e-08 W=6.3e-07 AD=8.82e-14 AS=8.82e-14 PD=1.54e-06 PS=1.54e-06
mXI3/XI11/MM_i_53 XI3/XI11/NET_003 OP0<2> XI3/OP0_TEMP<2> VDD! PMOS_VTL L=5e-08
+ W=6.3e-07 AD=6.615e-14 AS=8.82e-14 PD=1.47e-06 PS=1.54e-06
mXI3/XI12/MM_i_0 XI3/XI12/NET_000 XI3/CTRL_BUF<3> VSS! VSS! NMOS_VTL L=5e-08
+ W=2.1e-07 AD=2.94e-14 AS=2.205e-14 PD=7e-07 PS=6.3e-07
mXI3/XI12/MM_i_7 VSS! OP0<3> XI3/XI12/NET_000 VSS! NMOS_VTL L=5e-08 W=2.1e-07
+ AD=4.48e-14 AS=2.94e-14 PD=1.12e-06 PS=7e-07
mXI3/XI12/MM_i_13 XI3/OP0_TEMP<3> XI3/XI12/NET_000 VSS! VSS! NMOS_VTL L=5e-08
+ W=4.15e-07 AD=5.81e-14 AS=4.48e-14 PD=1.11e-06 PS=1.12e-06
mXI3/XI12/MM_i_19 XI3/XI12/NET_001 XI3/CTRL_BUF<3> XI3/OP0_TEMP<3> VSS! NMOS_VTL
+ L=5e-08 W=4.15e-07 AD=5.81e-14 AS=5.81e-14 PD=1.11e-06 PS=1.11e-06
mXI3/XI12/MM_i_24 VSS! OP0<3> XI3/XI12/NET_001 VSS! NMOS_VTL L=5e-08 W=4.15e-07
+ AD=4.3575e-14 AS=5.81e-14 PD=1.04e-06 PS=1.11e-06
mXI3/XI12/MM_i_30 XI3/XI12/NET_002 XI3/CTRL_BUF<3> XI3/XI12/NET_000 VDD!
+ PMOS_VTL L=5e-08 W=3.15e-07 AD=4.41e-14 AS=3.3075e-14 PD=9.1e-07 PS=8.4e-07
mXI3/XI12/MM_i_35 VDD! OP0<3> XI3/XI12/NET_002 VDD! PMOS_VTL L=5e-08 W=3.15e-07
+ AD=6.7725e-14 AS=4.41e-14 PD=1.55e-06 PS=9.1e-07
mXI3/XI12/MM_i_41 XI3/XI12/NET_003 XI3/XI12/NET_000 VDD! VDD! PMOS_VTL L=5e-08
+ W=6.3e-07 AD=8.82e-14 AS=6.7725e-14 PD=1.54e-06 PS=1.55e-06
mXI3/XI12/MM_i_47 XI3/OP0_TEMP<3> XI3/CTRL_BUF<3> XI3/XI12/NET_003 VDD! PMOS_VTL
+ L=5e-08 W=6.3e-07 AD=8.82e-14 AS=8.82e-14 PD=1.54e-06 PS=1.54e-06
mXI3/XI12/MM_i_53 XI3/XI12/NET_003 OP0<3> XI3/OP0_TEMP<3> VDD! PMOS_VTL L=5e-08
+ W=6.3e-07 AD=6.615e-14 AS=8.82e-14 PD=1.47e-06 PS=1.54e-06
mXI3/XI0/MM_instance_159 XI3/NET16 XI3/XI0/NET_001 VSS! VSS! NMOS_VTL L=5e-08
+ W=4.15e-07 AD=4.3575e-14 AS=4.375e-14 PD=1.04e-06 PS=1.11e-06
mXI3/XI0/MM_instance_166 VSS! OP1<0> XI3/XI0/NET_000 VSS! NMOS_VTL L=5e-08
+ W=2.1e-07 AD=4.375e-14 AS=2.94e-14 PD=1.11e-06 PS=7e-07
mXI3/XI0/MM_instance_170 XI3/XI0/NET_000 XI3/OP0_TEMP<0> XI3/XI0/NET_001 VSS!
+ NMOS_VTL L=5e-08 W=2.1e-07 AD=2.94e-14 AS=2.94e-14 PD=7e-07 PS=7e-07
mXI3/XI0/MM_instance_176 XI3/XI0/NET_001 CTRL<0> XI3/XI0/NET_002 VSS! NMOS_VTL
+ L=5e-08 W=2.1e-07 AD=2.94e-14 AS=3.045e-14 PD=7e-07 PS=7.1e-07
mXI3/XI0/MM_instance_188 XI3/XI0/NET_002 XI3/OP0_TEMP<0> VSS! VSS! NMOS_VTL
+ L=5e-08 W=2.1e-07 AD=3.045e-14 AS=2.94e-14 PD=7.1e-07 PS=7e-07
mXI3/XI0/MM_instance_182 VSS! OP1<0> XI3/XI0/NET_002 VSS! NMOS_VTL L=5e-08
+ W=2.1e-07 AD=2.94e-14 AS=2.205e-14 PD=7e-07 PS=6.3e-07
mXI3/XI0/MM_instance_227 XI3/XI0/NET_006 OP1<0> VSS! VSS! NMOS_VTL L=5e-08
+ W=2.1e-07 AD=2.94e-14 AS=2.205e-14 PD=7e-07 PS=6.3e-07
mXI3/XI0/MM_instance_215 VSS! CTRL<0> XI3/XI0/NET_006 VSS! NMOS_VTL L=5e-08
+ W=2.1e-07 AD=2.94e-14 AS=2.94e-14 PD=7e-07 PS=7e-07
mXI3/XI0/MM_instance_221 XI3/XI0/NET_006 XI3/OP0_TEMP<0> VSS! VSS! NMOS_VTL
+ L=5e-08 W=2.1e-07 AD=2.94e-14 AS=2.94e-14 PD=7e-07 PS=7e-07
mXI3/XI0/MM_instance_209 XI3/XI0/NET_005 XI3/XI0/NET_001 XI3/XI0/NET_006 VSS!
+ NMOS_VTL L=5e-08 W=2.1e-07 AD=3.15e-14 AS=2.94e-14 PD=7.2e-07 PS=7e-07
mXI3/XI0/MM_instance_203 XI3/XI0/NET_004 CTRL<0> XI3/XI0/NET_005 VSS! NMOS_VTL
+ L=5e-08 W=2.1e-07 AD=2.94e-14 AS=3.15e-14 PD=7e-07 PS=7.2e-07
mXI3/XI0/MM_instance_199 XI3/XI0/NET_003 OP1<0> XI3/XI0/NET_004 VSS! NMOS_VTL
+ L=5e-08 W=2.1e-07 AD=2.94e-14 AS=2.94e-14 PD=7e-07 PS=7e-07
mXI3/XI0/MM_instance_194 VSS! XI3/OP0_TEMP<0> XI3/XI0/NET_003 VSS! NMOS_VTL
+ L=5e-08 W=2.1e-07 AD=4.375e-14 AS=2.94e-14 PD=1.11e-06 PS=7e-07
mXI3/XI0/MM_instance_233 ARITHMETIC_OUT<0> XI3/XI0/NET_005 VSS! VSS! NMOS_VTL
+ L=5e-08 W=4.15e-07 AD=4.3575e-14 AS=4.375e-14 PD=1.04e-06 PS=1.11e-06
mXI3/XI0/MM_instance_239 XI3/NET16 XI3/XI0/NET_001 VDD! VDD! PMOS_VTL L=5e-08
+ W=6.3e-07 AD=6.615e-14 AS=6.615e-14 PD=1.47e-06 PS=1.54e-06
mXI3/XI0/MM_instance_246 VDD! OP1<0> XI3/XI0/NET_007 VDD! PMOS_VTL L=5e-08
+ W=3.15e-07 AD=6.615e-14 AS=4.41e-14 PD=1.54e-06 PS=9.1e-07
mXI3/XI0/MM_instance_251 XI3/XI0/NET_007 XI3/OP0_TEMP<0> XI3/XI0/NET_001 VDD!
+ PMOS_VTL L=5e-08 W=3.15e-07 AD=4.41e-14 AS=4.41e-14 PD=9.1e-07 PS=9.1e-07
mXI3/XI0/MM_instance_257 XI3/XI0/NET_001 CTRL<0> XI3/XI0/NET_008 VDD! PMOS_VTL
+ L=5e-08 W=3.15e-07 AD=4.41e-14 AS=4.53e-14 PD=9.1e-07 PS=1.07e-06
mXI3/XI0/MM_instance_269 XI3/XI0/NET_008 XI3/OP0_TEMP<0> VDD! VDD! PMOS_VTL
+ L=5e-08 W=3.15e-07 AD=4.53e-14 AS=4.41e-14 PD=1.07e-06 PS=9.1e-07
mXI3/XI0/MM_instance_263 VDD! OP1<0> XI3/XI0/NET_008 VDD! PMOS_VTL L=5e-08
+ W=3.15e-07 AD=4.41e-14 AS=3.3075e-14 PD=9.1e-07 PS=8.4e-07
mXI3/XI0/MM_instance_309 XI3/XI0/NET_011 OP1<0> VDD! VDD! PMOS_VTL L=5e-08
+ W=3.15e-07 AD=4.41e-14 AS=3.3075e-14 PD=9.1e-07 PS=8.4e-07
mXI3/XI0/MM_instance_297 VDD! CTRL<0> XI3/XI0/NET_011 VDD! PMOS_VTL L=5e-08
+ W=3.15e-07 AD=4.41e-14 AS=4.41e-14 PD=9.1e-07 PS=9.1e-07
mXI3/XI0/MM_instance_303 XI3/XI0/NET_011 XI3/OP0_TEMP<0> VDD! VDD! PMOS_VTL
+ L=5e-08 W=3.15e-07 AD=4.41e-14 AS=4.41e-14 PD=9.1e-07 PS=9.1e-07
mXI3/XI0/MM_instance_290 XI3/XI0/NET_005 XI3/XI0/NET_001 XI3/XI0/NET_011 VDD!
+ PMOS_VTL L=5e-08 W=3.15e-07 AD=4.725e-14 AS=4.41e-14 PD=9.3e-07 PS=9.1e-07
mXI3/XI0/MM_instance_284 XI3/XI0/NET_010 CTRL<0> XI3/XI0/NET_005 VDD! PMOS_VTL
+ L=5e-08 W=3.15e-07 AD=4.41e-14 AS=4.725e-14 PD=9.1e-07 PS=9.3e-07
mXI3/XI0/MM_instance_280 XI3/XI0/NET_009 OP1<0> XI3/XI0/NET_010 VDD! PMOS_VTL
+ L=5e-08 W=3.15e-07 AD=4.41e-14 AS=4.41e-14 PD=9.1e-07 PS=9.1e-07
mXI3/XI0/MM_instance_275 VDD! XI3/OP0_TEMP<0> XI3/XI0/NET_009 VDD! PMOS_VTL
+ L=5e-08 W=3.15e-07 AD=6.615e-14 AS=4.41e-14 PD=1.54e-06 PS=9.1e-07
mXI3/XI0/MM_instance_315 ARITHMETIC_OUT<0> XI3/XI0/NET_005 VDD! VDD! PMOS_VTL
+ L=5e-08 W=6.3e-07 AD=6.615e-14 AS=6.615e-14 PD=1.47e-06 PS=1.54e-06
mXI3/XI1/MM_instance_159 XI3/NET21 XI3/XI1/NET_001 VSS! VSS! NMOS_VTL L=5e-08
+ W=4.15e-07 AD=4.3575e-14 AS=4.375e-14 PD=1.04e-06 PS=1.11e-06
mXI3/XI1/MM_instance_166 VSS! OP1<1> XI3/XI1/NET_000 VSS! NMOS_VTL L=5e-08
+ W=2.1e-07 AD=4.375e-14 AS=2.94e-14 PD=1.11e-06 PS=7e-07
mXI3/XI1/MM_instance_170 XI3/XI1/NET_000 XI3/OP0_TEMP<1> XI3/XI1/NET_001 VSS!
+ NMOS_VTL L=5e-08 W=2.1e-07 AD=2.94e-14 AS=2.94e-14 PD=7e-07 PS=7e-07
mXI3/XI1/MM_instance_176 XI3/XI1/NET_001 XI3/NET16 XI3/XI1/NET_002 VSS! NMOS_VTL
+ L=5e-08 W=2.1e-07 AD=2.94e-14 AS=3.045e-14 PD=7e-07 PS=7.1e-07
mXI3/XI1/MM_instance_188 XI3/XI1/NET_002 XI3/OP0_TEMP<1> VSS! VSS! NMOS_VTL
+ L=5e-08 W=2.1e-07 AD=3.045e-14 AS=2.94e-14 PD=7.1e-07 PS=7e-07
mXI3/XI1/MM_instance_182 VSS! OP1<1> XI3/XI1/NET_002 VSS! NMOS_VTL L=5e-08
+ W=2.1e-07 AD=2.94e-14 AS=2.205e-14 PD=7e-07 PS=6.3e-07
mXI3/XI1/MM_instance_227 XI3/XI1/NET_006 OP1<1> VSS! VSS! NMOS_VTL L=5e-08
+ W=2.1e-07 AD=2.94e-14 AS=2.205e-14 PD=7e-07 PS=6.3e-07
mXI3/XI1/MM_instance_215 VSS! XI3/NET16 XI3/XI1/NET_006 VSS! NMOS_VTL L=5e-08
+ W=2.1e-07 AD=2.94e-14 AS=2.94e-14 PD=7e-07 PS=7e-07
mXI3/XI1/MM_instance_221 XI3/XI1/NET_006 XI3/OP0_TEMP<1> VSS! VSS! NMOS_VTL
+ L=5e-08 W=2.1e-07 AD=2.94e-14 AS=2.94e-14 PD=7e-07 PS=7e-07
mXI3/XI1/MM_instance_209 XI3/XI1/NET_005 XI3/XI1/NET_001 XI3/XI1/NET_006 VSS!
+ NMOS_VTL L=5e-08 W=2.1e-07 AD=3.15e-14 AS=2.94e-14 PD=7.2e-07 PS=7e-07
mXI3/XI1/MM_instance_203 XI3/XI1/NET_004 XI3/NET16 XI3/XI1/NET_005 VSS! NMOS_VTL
+ L=5e-08 W=2.1e-07 AD=2.94e-14 AS=3.15e-14 PD=7e-07 PS=7.2e-07
mXI3/XI1/MM_instance_199 XI3/XI1/NET_003 OP1<1> XI3/XI1/NET_004 VSS! NMOS_VTL
+ L=5e-08 W=2.1e-07 AD=2.94e-14 AS=2.94e-14 PD=7e-07 PS=7e-07
mXI3/XI1/MM_instance_194 VSS! XI3/OP0_TEMP<1> XI3/XI1/NET_003 VSS! NMOS_VTL
+ L=5e-08 W=2.1e-07 AD=4.375e-14 AS=2.94e-14 PD=1.11e-06 PS=7e-07
mXI3/XI1/MM_instance_233 ARITHMETIC_OUT<1> XI3/XI1/NET_005 VSS! VSS! NMOS_VTL
+ L=5e-08 W=4.15e-07 AD=4.3575e-14 AS=4.375e-14 PD=1.04e-06 PS=1.11e-06
mXI3/XI1/MM_instance_239 XI3/NET21 XI3/XI1/NET_001 VDD! VDD! PMOS_VTL L=5e-08
+ W=6.3e-07 AD=6.615e-14 AS=6.615e-14 PD=1.47e-06 PS=1.54e-06
mXI3/XI1/MM_instance_246 VDD! OP1<1> XI3/XI1/NET_007 VDD! PMOS_VTL L=5e-08
+ W=3.15e-07 AD=6.615e-14 AS=4.41e-14 PD=1.54e-06 PS=9.1e-07
mXI3/XI1/MM_instance_251 XI3/XI1/NET_007 XI3/OP0_TEMP<1> XI3/XI1/NET_001 VDD!
+ PMOS_VTL L=5e-08 W=3.15e-07 AD=4.41e-14 AS=4.41e-14 PD=9.1e-07 PS=9.1e-07
mXI3/XI1/MM_instance_257 XI3/XI1/NET_001 XI3/NET16 XI3/XI1/NET_008 VDD! PMOS_VTL
+ L=5e-08 W=3.15e-07 AD=4.41e-14 AS=4.53e-14 PD=9.1e-07 PS=1.07e-06
mXI3/XI1/MM_instance_269 XI3/XI1/NET_008 XI3/OP0_TEMP<1> VDD! VDD! PMOS_VTL
+ L=5e-08 W=3.15e-07 AD=4.53e-14 AS=4.41e-14 PD=1.07e-06 PS=9.1e-07
mXI3/XI1/MM_instance_263 VDD! OP1<1> XI3/XI1/NET_008 VDD! PMOS_VTL L=5e-08
+ W=3.15e-07 AD=4.41e-14 AS=3.3075e-14 PD=9.1e-07 PS=8.4e-07
mXI3/XI1/MM_instance_309 XI3/XI1/NET_011 OP1<1> VDD! VDD! PMOS_VTL L=5e-08
+ W=3.15e-07 AD=4.41e-14 AS=3.3075e-14 PD=9.1e-07 PS=8.4e-07
mXI3/XI1/MM_instance_297 VDD! XI3/NET16 XI3/XI1/NET_011 VDD! PMOS_VTL L=5e-08
+ W=3.15e-07 AD=4.41e-14 AS=4.41e-14 PD=9.1e-07 PS=9.1e-07
mXI3/XI1/MM_instance_303 XI3/XI1/NET_011 XI3/OP0_TEMP<1> VDD! VDD! PMOS_VTL
+ L=5e-08 W=3.15e-07 AD=4.41e-14 AS=4.41e-14 PD=9.1e-07 PS=9.1e-07
mXI3/XI1/MM_instance_290 XI3/XI1/NET_005 XI3/XI1/NET_001 XI3/XI1/NET_011 VDD!
+ PMOS_VTL L=5e-08 W=3.15e-07 AD=4.725e-14 AS=4.41e-14 PD=9.3e-07 PS=9.1e-07
mXI3/XI1/MM_instance_284 XI3/XI1/NET_010 XI3/NET16 XI3/XI1/NET_005 VDD! PMOS_VTL
+ L=5e-08 W=3.15e-07 AD=4.41e-14 AS=4.725e-14 PD=9.1e-07 PS=9.3e-07
mXI3/XI1/MM_instance_280 XI3/XI1/NET_009 OP1<1> XI3/XI1/NET_010 VDD! PMOS_VTL
+ L=5e-08 W=3.15e-07 AD=4.41e-14 AS=4.41e-14 PD=9.1e-07 PS=9.1e-07
mXI3/XI1/MM_instance_275 VDD! XI3/OP0_TEMP<1> XI3/XI1/NET_009 VDD! PMOS_VTL
+ L=5e-08 W=3.15e-07 AD=6.615e-14 AS=4.41e-14 PD=1.54e-06 PS=9.1e-07
mXI3/XI1/MM_instance_315 ARITHMETIC_OUT<1> XI3/XI1/NET_005 VDD! VDD! PMOS_VTL
+ L=5e-08 W=6.3e-07 AD=6.615e-14 AS=6.615e-14 PD=1.47e-06 PS=1.54e-06
mXI3/XI2/MM_instance_159 XI3/NET26 XI3/XI2/NET_001 VSS! VSS! NMOS_VTL L=5e-08
+ W=4.15e-07 AD=4.3575e-14 AS=4.375e-14 PD=1.04e-06 PS=1.11e-06
mXI3/XI2/MM_instance_166 VSS! OP1<2> XI3/XI2/NET_000 VSS! NMOS_VTL L=5e-08
+ W=2.1e-07 AD=4.375e-14 AS=2.94e-14 PD=1.11e-06 PS=7e-07
mXI3/XI2/MM_instance_170 XI3/XI2/NET_000 XI3/OP0_TEMP<2> XI3/XI2/NET_001 VSS!
+ NMOS_VTL L=5e-08 W=2.1e-07 AD=2.94e-14 AS=2.94e-14 PD=7e-07 PS=7e-07
mXI3/XI2/MM_instance_176 XI3/XI2/NET_001 XI3/NET21 XI3/XI2/NET_002 VSS! NMOS_VTL
+ L=5e-08 W=2.1e-07 AD=2.94e-14 AS=3.045e-14 PD=7e-07 PS=7.1e-07
mXI3/XI2/MM_instance_188 XI3/XI2/NET_002 XI3/OP0_TEMP<2> VSS! VSS! NMOS_VTL
+ L=5e-08 W=2.1e-07 AD=3.045e-14 AS=2.94e-14 PD=7.1e-07 PS=7e-07
mXI3/XI2/MM_instance_182 VSS! OP1<2> XI3/XI2/NET_002 VSS! NMOS_VTL L=5e-08
+ W=2.1e-07 AD=2.94e-14 AS=2.205e-14 PD=7e-07 PS=6.3e-07
mXI3/XI2/MM_instance_227 XI3/XI2/NET_006 OP1<2> VSS! VSS! NMOS_VTL L=5e-08
+ W=2.1e-07 AD=2.94e-14 AS=2.205e-14 PD=7e-07 PS=6.3e-07
mXI3/XI2/MM_instance_215 VSS! XI3/NET21 XI3/XI2/NET_006 VSS! NMOS_VTL L=5e-08
+ W=2.1e-07 AD=2.94e-14 AS=2.94e-14 PD=7e-07 PS=7e-07
mXI3/XI2/MM_instance_221 XI3/XI2/NET_006 XI3/OP0_TEMP<2> VSS! VSS! NMOS_VTL
+ L=5e-08 W=2.1e-07 AD=2.94e-14 AS=2.94e-14 PD=7e-07 PS=7e-07
mXI3/XI2/MM_instance_209 XI3/XI2/NET_005 XI3/XI2/NET_001 XI3/XI2/NET_006 VSS!
+ NMOS_VTL L=5e-08 W=2.1e-07 AD=3.15e-14 AS=2.94e-14 PD=7.2e-07 PS=7e-07
mXI3/XI2/MM_instance_203 XI3/XI2/NET_004 XI3/NET21 XI3/XI2/NET_005 VSS! NMOS_VTL
+ L=5e-08 W=2.1e-07 AD=2.94e-14 AS=3.15e-14 PD=7e-07 PS=7.2e-07
mXI3/XI2/MM_instance_199 XI3/XI2/NET_003 OP1<2> XI3/XI2/NET_004 VSS! NMOS_VTL
+ L=5e-08 W=2.1e-07 AD=2.94e-14 AS=2.94e-14 PD=7e-07 PS=7e-07
mXI3/XI2/MM_instance_194 VSS! XI3/OP0_TEMP<2> XI3/XI2/NET_003 VSS! NMOS_VTL
+ L=5e-08 W=2.1e-07 AD=4.375e-14 AS=2.94e-14 PD=1.11e-06 PS=7e-07
mXI3/XI2/MM_instance_233 ARITHMETIC_OUT<2> XI3/XI2/NET_005 VSS! VSS! NMOS_VTL
+ L=5e-08 W=4.15e-07 AD=4.3575e-14 AS=4.375e-14 PD=1.04e-06 PS=1.11e-06
mXI3/XI2/MM_instance_239 XI3/NET26 XI3/XI2/NET_001 VDD! VDD! PMOS_VTL L=5e-08
+ W=6.3e-07 AD=6.615e-14 AS=6.615e-14 PD=1.47e-06 PS=1.54e-06
mXI3/XI2/MM_instance_246 VDD! OP1<2> XI3/XI2/NET_007 VDD! PMOS_VTL L=5e-08
+ W=3.15e-07 AD=6.615e-14 AS=4.41e-14 PD=1.54e-06 PS=9.1e-07
mXI3/XI2/MM_instance_251 XI3/XI2/NET_007 XI3/OP0_TEMP<2> XI3/XI2/NET_001 VDD!
+ PMOS_VTL L=5e-08 W=3.15e-07 AD=4.41e-14 AS=4.41e-14 PD=9.1e-07 PS=9.1e-07
mXI3/XI2/MM_instance_257 XI3/XI2/NET_001 XI3/NET21 XI3/XI2/NET_008 VDD! PMOS_VTL
+ L=5e-08 W=3.15e-07 AD=4.41e-14 AS=4.53e-14 PD=9.1e-07 PS=1.07e-06
mXI3/XI2/MM_instance_269 XI3/XI2/NET_008 XI3/OP0_TEMP<2> VDD! VDD! PMOS_VTL
+ L=5e-08 W=3.15e-07 AD=4.53e-14 AS=4.41e-14 PD=1.07e-06 PS=9.1e-07
mXI3/XI2/MM_instance_263 VDD! OP1<2> XI3/XI2/NET_008 VDD! PMOS_VTL L=5e-08
+ W=3.15e-07 AD=4.41e-14 AS=3.3075e-14 PD=9.1e-07 PS=8.4e-07
mXI3/XI2/MM_instance_309 XI3/XI2/NET_011 OP1<2> VDD! VDD! PMOS_VTL L=5e-08
+ W=3.15e-07 AD=4.41e-14 AS=3.3075e-14 PD=9.1e-07 PS=8.4e-07
mXI3/XI2/MM_instance_297 VDD! XI3/NET21 XI3/XI2/NET_011 VDD! PMOS_VTL L=5e-08
+ W=3.15e-07 AD=4.41e-14 AS=4.41e-14 PD=9.1e-07 PS=9.1e-07
mXI3/XI2/MM_instance_303 XI3/XI2/NET_011 XI3/OP0_TEMP<2> VDD! VDD! PMOS_VTL
+ L=5e-08 W=3.15e-07 AD=4.41e-14 AS=4.41e-14 PD=9.1e-07 PS=9.1e-07
mXI3/XI2/MM_instance_290 XI3/XI2/NET_005 XI3/XI2/NET_001 XI3/XI2/NET_011 VDD!
+ PMOS_VTL L=5e-08 W=3.15e-07 AD=4.725e-14 AS=4.41e-14 PD=9.3e-07 PS=9.1e-07
mXI3/XI2/MM_instance_284 XI3/XI2/NET_010 XI3/NET21 XI3/XI2/NET_005 VDD! PMOS_VTL
+ L=5e-08 W=3.15e-07 AD=4.41e-14 AS=4.725e-14 PD=9.1e-07 PS=9.3e-07
mXI3/XI2/MM_instance_280 XI3/XI2/NET_009 OP1<2> XI3/XI2/NET_010 VDD! PMOS_VTL
+ L=5e-08 W=3.15e-07 AD=4.41e-14 AS=4.41e-14 PD=9.1e-07 PS=9.1e-07
mXI3/XI2/MM_instance_275 VDD! XI3/OP0_TEMP<2> XI3/XI2/NET_009 VDD! PMOS_VTL
+ L=5e-08 W=3.15e-07 AD=6.615e-14 AS=4.41e-14 PD=1.54e-06 PS=9.1e-07
mXI3/XI2/MM_instance_315 ARITHMETIC_OUT<2> XI3/XI2/NET_005 VDD! VDD! PMOS_VTL
+ L=5e-08 W=6.3e-07 AD=6.615e-14 AS=6.615e-14 PD=1.47e-06 PS=1.54e-06
mXI3/XI3/MM_instance_159 XI3/NET1 XI3/XI3/NET_001 VSS! VSS! NMOS_VTL L=5e-08
+ W=4.15e-07 AD=4.3575e-14 AS=4.375e-14 PD=1.04e-06 PS=1.11e-06
mXI3/XI3/MM_instance_166 VSS! OP1<3> XI3/XI3/NET_000 VSS! NMOS_VTL L=5e-08
+ W=2.1e-07 AD=4.375e-14 AS=2.94e-14 PD=1.11e-06 PS=7e-07
mXI3/XI3/MM_instance_170 XI3/XI3/NET_000 XI3/OP0_TEMP<3> XI3/XI3/NET_001 VSS!
+ NMOS_VTL L=5e-08 W=2.1e-07 AD=2.94e-14 AS=2.94e-14 PD=7e-07 PS=7e-07
mXI3/XI3/MM_instance_176 XI3/XI3/NET_001 XI3/NET26 XI3/XI3/NET_002 VSS! NMOS_VTL
+ L=5e-08 W=2.1e-07 AD=2.94e-14 AS=3.045e-14 PD=7e-07 PS=7.1e-07
mXI3/XI3/MM_instance_188 XI3/XI3/NET_002 XI3/OP0_TEMP<3> VSS! VSS! NMOS_VTL
+ L=5e-08 W=2.1e-07 AD=3.045e-14 AS=2.94e-14 PD=7.1e-07 PS=7e-07
mXI3/XI3/MM_instance_182 VSS! OP1<3> XI3/XI3/NET_002 VSS! NMOS_VTL L=5e-08
+ W=2.1e-07 AD=2.94e-14 AS=2.205e-14 PD=7e-07 PS=6.3e-07
mXI3/XI3/MM_instance_227 XI3/XI3/NET_006 OP1<3> VSS! VSS! NMOS_VTL L=5e-08
+ W=2.1e-07 AD=2.94e-14 AS=2.205e-14 PD=7e-07 PS=6.3e-07
mXI3/XI3/MM_instance_215 VSS! XI3/NET26 XI3/XI3/NET_006 VSS! NMOS_VTL L=5e-08
+ W=2.1e-07 AD=2.94e-14 AS=2.94e-14 PD=7e-07 PS=7e-07
mXI3/XI3/MM_instance_221 XI3/XI3/NET_006 XI3/OP0_TEMP<3> VSS! VSS! NMOS_VTL
+ L=5e-08 W=2.1e-07 AD=2.94e-14 AS=2.94e-14 PD=7e-07 PS=7e-07
mXI3/XI3/MM_instance_209 XI3/XI3/NET_005 XI3/XI3/NET_001 XI3/XI3/NET_006 VSS!
+ NMOS_VTL L=5e-08 W=2.1e-07 AD=3.15e-14 AS=2.94e-14 PD=7.2e-07 PS=7e-07
mXI3/XI3/MM_instance_203 XI3/XI3/NET_004 XI3/NET26 XI3/XI3/NET_005 VSS! NMOS_VTL
+ L=5e-08 W=2.1e-07 AD=2.94e-14 AS=3.15e-14 PD=7e-07 PS=7.2e-07
mXI3/XI3/MM_instance_199 XI3/XI3/NET_003 OP1<3> XI3/XI3/NET_004 VSS! NMOS_VTL
+ L=5e-08 W=2.1e-07 AD=2.94e-14 AS=2.94e-14 PD=7e-07 PS=7e-07
mXI3/XI3/MM_instance_194 VSS! XI3/OP0_TEMP<3> XI3/XI3/NET_003 VSS! NMOS_VTL
+ L=5e-08 W=2.1e-07 AD=4.375e-14 AS=2.94e-14 PD=1.11e-06 PS=7e-07
mXI3/XI3/MM_instance_233 ARITHMETIC_OUT<3> XI3/XI3/NET_005 VSS! VSS! NMOS_VTL
+ L=5e-08 W=4.15e-07 AD=4.3575e-14 AS=4.375e-14 PD=1.04e-06 PS=1.11e-06
mXI3/XI3/MM_instance_239 XI3/NET1 XI3/XI3/NET_001 VDD! VDD! PMOS_VTL L=5e-08
+ W=6.3e-07 AD=6.615e-14 AS=6.615e-14 PD=1.47e-06 PS=1.54e-06
mXI3/XI3/MM_instance_246 VDD! OP1<3> XI3/XI3/NET_007 VDD! PMOS_VTL L=5e-08
+ W=3.15e-07 AD=6.615e-14 AS=4.41e-14 PD=1.54e-06 PS=9.1e-07
mXI3/XI3/MM_instance_251 XI3/XI3/NET_007 XI3/OP0_TEMP<3> XI3/XI3/NET_001 VDD!
+ PMOS_VTL L=5e-08 W=3.15e-07 AD=4.41e-14 AS=4.41e-14 PD=9.1e-07 PS=9.1e-07
mXI3/XI3/MM_instance_257 XI3/XI3/NET_001 XI3/NET26 XI3/XI3/NET_008 VDD! PMOS_VTL
+ L=5e-08 W=3.15e-07 AD=4.41e-14 AS=4.53e-14 PD=9.1e-07 PS=1.07e-06
mXI3/XI3/MM_instance_269 XI3/XI3/NET_008 XI3/OP0_TEMP<3> VDD! VDD! PMOS_VTL
+ L=5e-08 W=3.15e-07 AD=4.53e-14 AS=4.41e-14 PD=1.07e-06 PS=9.1e-07
mXI3/XI3/MM_instance_263 VDD! OP1<3> XI3/XI3/NET_008 VDD! PMOS_VTL L=5e-08
+ W=3.15e-07 AD=4.41e-14 AS=3.3075e-14 PD=9.1e-07 PS=8.4e-07
mXI3/XI3/MM_instance_309 XI3/XI3/NET_011 OP1<3> VDD! VDD! PMOS_VTL L=5e-08
+ W=3.15e-07 AD=4.41e-14 AS=3.3075e-14 PD=9.1e-07 PS=8.4e-07
mXI3/XI3/MM_instance_297 VDD! XI3/NET26 XI3/XI3/NET_011 VDD! PMOS_VTL L=5e-08
+ W=3.15e-07 AD=4.41e-14 AS=4.41e-14 PD=9.1e-07 PS=9.1e-07
mXI3/XI3/MM_instance_303 XI3/XI3/NET_011 XI3/OP0_TEMP<3> VDD! VDD! PMOS_VTL
+ L=5e-08 W=3.15e-07 AD=4.41e-14 AS=4.41e-14 PD=9.1e-07 PS=9.1e-07
mXI3/XI3/MM_instance_290 XI3/XI3/NET_005 XI3/XI3/NET_001 XI3/XI3/NET_011 VDD!
+ PMOS_VTL L=5e-08 W=3.15e-07 AD=4.725e-14 AS=4.41e-14 PD=9.3e-07 PS=9.1e-07
mXI3/XI3/MM_instance_284 XI3/XI3/NET_010 XI3/NET26 XI3/XI3/NET_005 VDD! PMOS_VTL
+ L=5e-08 W=3.15e-07 AD=4.41e-14 AS=4.725e-14 PD=9.1e-07 PS=9.3e-07
mXI3/XI3/MM_instance_280 XI3/XI3/NET_009 OP1<3> XI3/XI3/NET_010 VDD! PMOS_VTL
+ L=5e-08 W=3.15e-07 AD=4.41e-14 AS=4.41e-14 PD=9.1e-07 PS=9.1e-07
mXI3/XI3/MM_instance_275 VDD! XI3/OP0_TEMP<3> XI3/XI3/NET_009 VDD! PMOS_VTL
+ L=5e-08 W=3.15e-07 AD=6.615e-14 AS=4.41e-14 PD=1.54e-06 PS=9.1e-07
mXI3/XI3/MM_instance_315 ARITHMETIC_OUT<3> XI3/XI3/NET_005 VDD! VDD! PMOS_VTL
+ L=5e-08 W=6.3e-07 AD=6.615e-14 AS=6.615e-14 PD=1.47e-06 PS=1.54e-06
mXI4/XI14/MM_i_2 VSS! NET3 XI4/XI14/Z_NEG VSS! NMOS_VTL L=5e-08 W=2.1e-07
+ AD=4.375e-14 AS=2.205e-14 PD=1.11e-06 PS=6.3e-07
mXI4/XI14/MM_i_0 XI4/CTRL_BUF<1> XI4/XI14/Z_NEG VSS! VSS! NMOS_VTL L=5e-08
+ W=4.15e-07 AD=4.3575e-14 AS=4.375e-14 PD=1.04e-06 PS=1.11e-06
mXI4/XI14/MM_i_3 VDD! NET3 XI4/XI14/Z_NEG VDD! PMOS_VTL L=5e-08 W=3.15e-07
+ AD=6.615e-14 AS=3.3075e-14 PD=1.54e-06 PS=8.4e-07
mXI4/XI14/MM_i_1 XI4/CTRL_BUF<1> XI4/XI14/Z_NEG VDD! VDD! PMOS_VTL L=5e-08
+ W=6.3e-07 AD=6.615e-14 AS=6.615e-14 PD=1.47e-06 PS=1.54e-06
mXI4/XI19<0>/MM_i_2 VSS! LOGIC_OUT<4> XI4/XI19<0>/Z_NEG VSS! NMOS_VTL L=5e-08
+ W=2.1e-07 AD=4.375e-14 AS=2.205e-14 PD=1.11e-06 PS=6.3e-07
mXI4/XI19<0>/MM_i_0 LOGIC_OUT_BUF<4> XI4/XI19<0>/Z_NEG VSS! VSS! NMOS_VTL
+ L=5e-08 W=4.15e-07 AD=4.3575e-14 AS=4.375e-14 PD=1.04e-06 PS=1.11e-06
mXI4/XI19<0>/MM_i_3 VDD! LOGIC_OUT<4> XI4/XI19<0>/Z_NEG VDD! PMOS_VTL L=5e-08
+ W=3.15e-07 AD=6.615e-14 AS=3.3075e-14 PD=1.54e-06 PS=8.4e-07
mXI4/XI19<0>/MM_i_1 LOGIC_OUT_BUF<4> XI4/XI19<0>/Z_NEG VDD! VDD! PMOS_VTL
+ L=5e-08 W=6.3e-07 AD=6.615e-14 AS=6.615e-14 PD=1.47e-06 PS=1.54e-06
mXI4/XI21/MM_i_2 VSS! NET1 XI4/XI21/Z_NEG VSS! NMOS_VTL L=5e-08 W=2.1e-07
+ AD=4.375e-14 AS=2.205e-14 PD=1.11e-06 PS=6.3e-07
mXI4/XI21/MM_i_0 XI4/CI_BUF<1> XI4/XI21/Z_NEG VSS! VSS! NMOS_VTL L=5e-08
+ W=4.15e-07 AD=4.3575e-14 AS=4.375e-14 PD=1.04e-06 PS=1.11e-06
mXI4/XI21/MM_i_3 VDD! NET1 XI4/XI21/Z_NEG VDD! PMOS_VTL L=5e-08 W=3.15e-07
+ AD=6.615e-14 AS=3.3075e-14 PD=1.54e-06 PS=8.4e-07
mXI4/XI21/MM_i_1 XI4/CI_BUF<1> XI4/XI21/Z_NEG VDD! VDD! PMOS_VTL L=5e-08
+ W=6.3e-07 AD=6.615e-14 AS=6.615e-14 PD=1.47e-06 PS=1.54e-06
mXI4/XI15/MM_i_2 VSS! XI4/CTRL_BUF<1> XI4/XI15/Z_NEG VSS! NMOS_VTL L=5e-08
+ W=2.1e-07 AD=4.375e-14 AS=2.205e-14 PD=1.11e-06 PS=6.3e-07
mXI4/XI15/MM_i_0 XI4/CTRL_BUF<2> XI4/XI15/Z_NEG VSS! VSS! NMOS_VTL L=5e-08
+ W=4.15e-07 AD=4.3575e-14 AS=4.375e-14 PD=1.04e-06 PS=1.11e-06
mXI4/XI15/MM_i_3 VDD! XI4/CTRL_BUF<1> XI4/XI15/Z_NEG VDD! PMOS_VTL L=5e-08
+ W=3.15e-07 AD=6.615e-14 AS=3.3075e-14 PD=1.54e-06 PS=8.4e-07
mXI4/XI15/MM_i_1 XI4/CTRL_BUF<2> XI4/XI15/Z_NEG VDD! VDD! PMOS_VTL L=5e-08
+ W=6.3e-07 AD=6.615e-14 AS=6.615e-14 PD=1.47e-06 PS=1.54e-06
mXI4/XI19<1>/MM_i_2 VSS! LOGIC_OUT<5> XI4/XI19<1>/Z_NEG VSS! NMOS_VTL L=5e-08