* File: /gscratch/ece/courses/476/jarenas/jarenas_git/cad6/netlist/PEX/ALU_NO_FLAGS.pex.netlist
* Created: Fri Dec  3 16:19:53 2021
* Program "Calibre xRC"
* Version "v2021.3_35.19"
* 
.subckt ALU_NO_FLAGS  CTRL<1> CTRL<0> ALU_OUT<0> ALU_OUT<1> ALU_OUT<2>
+ ALU_OUT<3> ALU_OUT<4> ALU_OUT<5> ALU_OUT<6> ALU_OUT<7> ALU_OUT<8> ALU_OUT<9>
+ ALU_OUT<10> ALU_OUT<11> ALU_OUT<12> ALU_OUT<13> ALU_OUT<14> OP0_TEMP<15>
+ CTRL<2> ARITHMETIC_OUT<15> VDD! VSS! CO ALU_OUT<15> ALU_PRE<15> OP0<15>
+ OP1<15> OP0<14> OP1<14> OP0<0> OP1<0> OP0<1> OP1<1> OP0<2> OP1<2> OP0<3>
+ OP1<3> OP0<4> OP1<4> OP0<5> OP1<5> OP0<6> OP1<6> OP0<7> OP1<7> OP0<8> OP1<8>
+ OP0<9> OP1<9> OP0<10> OP1<10> OP0<11> OP1<11> OP0<12> OP1<12> OP0<13> OP1<13>
* 
mXI2/XI2<15>/MM_i_0_0_x4_0 VSS! XI2/NET3<0> ALU_OUT<15> VSS! NMOS_VTL L=5e-08
+ W=4.15e-07 AD=4.3575e-14 AS=5.81e-14 PD=1.04e-06 PS=1.11e-06
mXI2/XI2<15>/MM_i_0_0_x4_1 VSS! XI2/NET3<0> ALU_OUT<15> VSS! NMOS_VTL L=5e-08
+ W=4.15e-07 AD=5.81e-14 AS=5.81e-14 PD=1.11e-06 PS=1.11e-06
mXI2/XI2<15>/MM_i_0_0_x4_2 VSS! XI2/NET3<0> ALU_OUT<15> VSS! NMOS_VTL L=5e-08
+ W=4.15e-07 AD=5.81e-14 AS=5.81e-14 PD=1.11e-06 PS=1.11e-06
mXI2/XI2<15>/MM_i_0_0_x4_3 VSS! XI2/NET3<0> ALU_OUT<15> VSS! NMOS_VTL L=5e-08
+ W=4.15e-07 AD=4.3575e-14 AS=5.81e-14 PD=1.04e-06 PS=1.11e-06
mXI2/XI2<15>/MM_i_1_0_x4_0 VDD! XI2/NET3<0> ALU_OUT<15> VDD! PMOS_VTL L=5e-08
+ W=6.3e-07 AD=6.615e-14 AS=8.82e-14 PD=1.47e-06 PS=1.54e-06
mXI2/XI2<15>/MM_i_1_0_x4_1 VDD! XI2/NET3<0> ALU_OUT<15> VDD! PMOS_VTL L=5e-08
+ W=6.3e-07 AD=8.82e-14 AS=8.82e-14 PD=1.54e-06 PS=1.54e-06
mXI2/XI2<15>/MM_i_1_0_x4_2 VDD! XI2/NET3<0> ALU_OUT<15> VDD! PMOS_VTL L=5e-08
+ W=6.3e-07 AD=8.82e-14 AS=8.82e-14 PD=1.54e-06 PS=1.54e-06
mXI2/XI2<15>/MM_i_1_0_x4_3 VDD! XI2/NET3<0> ALU_OUT<15> VDD! PMOS_VTL L=5e-08
+ W=6.3e-07 AD=6.615e-14 AS=8.82e-14 PD=1.47e-06 PS=1.54e-06
mXI2/XI1<15>/MM_i_0 XI2/NET3<0> ALU_PRE<15> VSS! VSS! NMOS_VTL L=5e-08
+ W=4.15e-07 AD=4.3575e-14 AS=4.3575e-14 PD=1.04e-06 PS=1.04e-06
mXI2/XI1<15>/MM_i_1 XI2/NET3<0> ALU_PRE<15> VDD! VDD! PMOS_VTL L=5e-08 W=6.3e-07
+ AD=6.615e-14 AS=6.615e-14 PD=1.47e-06 PS=1.47e-06
mXI2/XI0<15>/MM_i_10 VSS! XI2/CTRL_2_BUF<15> XI2/XI0<15>/X1 VSS! NMOS_VTL
+ L=5e-08 W=2.1e-07 AD=2.94e-14 AS=2.205e-14 PD=7e-07 PS=6.3e-07
mXI2/XI0<15>/MM_i_4 XI2/XI0<15>/NET_1 LOGIC_OUT<15> VSS! VSS! NMOS_VTL L=5e-08
+ W=2.1e-07 AD=2.94e-14 AS=2.94e-14 PD=7e-07 PS=7e-07
mXI2/XI0<15>/MM_i_5 XI2/XI0<15>/Z_NEG XI2/XI0<15>/X1 XI2/XI0<15>/NET_1 VSS!
+ NMOS_VTL L=5e-08 W=2.1e-07 AD=2.94e-14 AS=2.94e-14 PD=7e-07 PS=7e-07
mXI2/XI0<15>/MM_i_2 XI2/XI0<15>/Z_NEG XI2/CTRL_2_BUF<15> XI2/XI0<15>/NET_0 VSS!
+ NMOS_VTL L=5e-08 W=2.1e-07 AD=2.94e-14 AS=2.94e-14 PD=7e-07 PS=7e-07
mXI2/XI0<15>/MM_i_3 XI2/XI0<15>/NET_0 ARITHMETIC_OUT<15> VSS! VSS! NMOS_VTL
+ L=5e-08 W=2.1e-07 AD=2.94e-14 AS=4.375e-14 PD=7e-07 PS=1.11e-06
mXI2/XI0<15>/MM_i_0 ALU_PRE<15> XI2/XI0<15>/Z_NEG VSS! VSS! NMOS_VTL L=5e-08
+ W=4.15e-07 AD=4.3575e-14 AS=4.375e-14 PD=1.04e-06 PS=1.11e-06
mXI2/XI0<15>/MM_i_11 VDD! XI2/CTRL_2_BUF<15> XI2/XI0<15>/X1 VDD! PMOS_VTL
+ L=5e-08 W=3.15e-07 AD=4.41e-14 AS=3.3075e-14 PD=9.1e-07 PS=8.4e-07
mXI2/XI0<15>/MM_i_8 VDD! LOGIC_OUT<15> XI2/XI0<15>/NET_2 VDD! PMOS_VTL L=5e-08
+ W=3.15e-07 AD=4.41e-14 AS=4.41e-14 PD=9.1e-07 PS=9.1e-07
mXI2/XI0<15>/MM_i_6 XI2/XI0<15>/NET_2 XI2/CTRL_2_BUF<15> XI2/XI0<15>/Z_NEG VDD!
+ PMOS_VTL L=5e-08 W=3.15e-07 AD=4.41e-14 AS=4.41e-14 PD=9.1e-07 PS=9.1e-07
mXI2/XI0<15>/MM_i_9 XI2/XI0<15>/NET_3 XI2/XI0<15>/X1 XI2/XI0<15>/Z_NEG VDD!
+ PMOS_VTL L=5e-08 W=3.15e-07 AD=4.41e-14 AS=4.41e-14 PD=9.1e-07 PS=9.1e-07
mXI2/XI0<15>/MM_i_7 VDD! ARITHMETIC_OUT<15> XI2/XI0<15>/NET_3 VDD! PMOS_VTL
+ L=5e-08 W=3.15e-07 AD=6.615e-14 AS=4.41e-14 PD=1.54e-06 PS=9.1e-07
mXI2/XI0<15>/MM_i_1 ALU_PRE<15> XI2/XI0<15>/Z_NEG VDD! VDD! PMOS_VTL L=5e-08
+ W=6.3e-07 AD=6.615e-14 AS=6.615e-14 PD=1.47e-06 PS=1.54e-06
mXI2/XI24/MM_i_2 VSS! CTRL<2> XI2/XI24/Z_NEG VSS! NMOS_VTL L=5e-08 W=2.1e-07
+ AD=4.375e-14 AS=2.205e-14 PD=1.11e-06 PS=6.3e-07
mXI2/XI24/MM_i_0 XI2/CTRL_2_BUF<15> XI2/XI24/Z_NEG VSS! VSS! NMOS_VTL L=5e-08
+ W=4.15e-07 AD=4.3575e-14 AS=4.375e-14 PD=1.04e-06 PS=1.11e-06
mXI2/XI24/MM_i_3 VDD! CTRL<2> XI2/XI24/Z_NEG VDD! PMOS_VTL L=5e-08 W=3.15e-07
+ AD=6.615e-14 AS=3.3075e-14 PD=1.54e-06 PS=8.4e-07
mXI2/XI24/MM_i_1 XI2/CTRL_2_BUF<15> XI2/XI24/Z_NEG VDD! VDD! PMOS_VTL L=5e-08
+ W=6.3e-07 AD=6.615e-14 AS=6.615e-14 PD=1.47e-06 PS=1.54e-06
mXI0/XI0/XI0/MM_i_1 XI0/XI0/XI0/NET_0 OP0<15> VSS! VSS! NMOS_VTL L=5e-08
+ W=4.15e-07 AD=5.81e-14 AS=4.3575e-14 PD=1.11e-06 PS=1.04e-06
mXI0/XI0/XI0/MM_i_0 XI0/XI0/NAND_OUT OP1<15> XI0/XI0/XI0/NET_0 VSS! NMOS_VTL
+ L=5e-08 W=4.15e-07 AD=4.3575e-14 AS=5.81e-14 PD=1.04e-06 PS=1.11e-06
mXI0/XI0/XI1/MM_i_0 XI0/XI0/XI1/NET_001 OP1<15> XI0/XI0/XI1/NET_000 VSS!
+ NMOS_VTL L=5e-08 W=2.1e-07 AD=2.94e-14 AS=2.205e-14 PD=7e-07 PS=6.3e-07
mXI0/XI0/XI1/MM_i_5 VSS! OP0<15> XI0/XI0/XI1/NET_001 VSS! NMOS_VTL L=5e-08
+ W=2.1e-07 AD=4.48e-14 AS=2.94e-14 PD=1.12e-06 PS=7e-07
mXI0/XI0/XI1/MM_i_11 XI0/XI0/XI1/NET_002 XI0/XI0/XI1/NET_000 VSS! VSS! NMOS_VTL
+ L=5e-08 W=4.15e-07 AD=5.81e-14 AS=4.48e-14 PD=1.11e-06 PS=1.12e-06
mXI0/XI0/XI1/MM_i_17 XI0/XI0/XNOR_OUT OP1<15> XI0/XI0/XI1/NET_002 VSS! NMOS_VTL
+ L=5e-08 W=4.15e-07 AD=5.81e-14 AS=5.81e-14 PD=1.11e-06 PS=1.11e-06
mXI0/XI0/XI1/MM_i_23 XI0/XI0/XI1/NET_002 OP0<15> XI0/XI0/XNOR_OUT VSS! NMOS_VTL
+ L=5e-08 W=4.15e-07 AD=4.3575e-14 AS=5.81e-14 PD=1.04e-06 PS=1.11e-06
mXI0/XI0/XI2/MM_i_1 XI0/XI0/NOR_OUT OP0<15> VSS! VSS! NMOS_VTL L=5e-08
+ W=4.15e-07 AD=5.81e-14 AS=4.3575e-14 PD=1.11e-06 PS=1.04e-06
mXI0/XI0/XI2/MM_i_0 VSS! OP1<15> XI0/XI0/NOR_OUT VSS! NMOS_VTL L=5e-08
+ W=4.15e-07 AD=4.3575e-14 AS=5.81e-14 PD=1.04e-06 PS=1.11e-06
mXI0/XI0/XI0/MM_i_3 XI0/XI0/NAND_OUT OP0<15> VDD! VDD! PMOS_VTL L=5e-08
+ W=6.3e-07 AD=8.82e-14 AS=6.615e-14 PD=1.54e-06 PS=1.47e-06
mXI0/XI0/XI0/MM_i_2 VDD! OP1<15> XI0/XI0/NAND_OUT VDD! PMOS_VTL L=5e-08
+ W=6.3e-07 AD=6.615e-14 AS=8.82e-14 PD=1.47e-06 PS=1.54e-06
mXI0/XI0/XI1/MM_i_29 XI0/XI0/XI1/NET_000 OP1<15> VDD! VDD! PMOS_VTL L=5e-08
+ W=3.15e-07 AD=4.41e-14 AS=3.3075e-14 PD=9.1e-07 PS=8.4e-07
mXI0/XI0/XI1/MM_i_36 VDD! OP0<15> XI0/XI0/XI1/NET_000 VDD! PMOS_VTL L=5e-08
+ W=3.15e-07 AD=6.7725e-14 AS=4.41e-14 PD=1.55e-06 PS=9.1e-07
mXI0/XI0/XI1/MM_i_42 XI0/XI0/XNOR_OUT XI0/XI0/XI1/NET_000 VDD! VDD! PMOS_VTL
+ L=5e-08 W=6.3e-07 AD=8.82e-14 AS=6.7725e-14 PD=1.54e-06 PS=1.55e-06
mXI0/XI0/XI1/MM_i_48 XI0/XI0/XI1/NET_003 OP1<15> XI0/XI0/XNOR_OUT VDD! PMOS_VTL
+ L=5e-08 W=6.3e-07 AD=8.82e-14 AS=8.82e-14 PD=1.54e-06 PS=1.54e-06
mXI0/XI0/XI1/MM_i_53 VDD! OP0<15> XI0/XI0/XI1/NET_003 VDD! PMOS_VTL L=5e-08
+ W=6.3e-07 AD=6.615e-14 AS=8.82e-14 PD=1.47e-06 PS=1.54e-06
mXI0/XI0/XI2/MM_i_3 XI0/XI0/XI2/NET_0 OP0<15> VDD! VDD! PMOS_VTL L=5e-08
+ W=6.3e-07 AD=8.82e-14 AS=6.615e-14 PD=1.54e-06 PS=1.47e-06
mXI0/XI0/XI2/MM_i_2 XI0/XI0/NOR_OUT OP1<15> XI0/XI0/XI2/NET_0 VDD! PMOS_VTL
+ L=5e-08 W=6.3e-07 AD=6.615e-14 AS=8.82e-14 PD=1.47e-06 PS=1.54e-06
mXI0/XI0/XI5/XI1/MM_i_0 LOGIC_PRE<15> XI0/XI0/XI5/Z VSS! VSS! NMOS_VTL L=5e-08
+ W=4.15e-07 AD=4.3575e-14 AS=4.3575e-14 PD=1.04e-06 PS=1.04e-06
mXI0/XI0/XI5/XI1/MM_i_1 LOGIC_PRE<15> XI0/XI0/XI5/Z VDD! VDD! PMOS_VTL L=5e-08
+ W=6.3e-07 AD=6.615e-14 AS=6.615e-14 PD=1.47e-06 PS=1.47e-06
mXI0/XI0/XI4/MM_i_10 VSS! XI0/CTRL0B<15> XI0/XI0/XI4/X1 VSS! NMOS_VTL L=5e-08
+ W=2.1e-07 AD=2.94e-14 AS=2.205e-14 PD=7e-07 PS=6.3e-07
mXI0/XI0/XI4/MM_i_4 XI0/XI0/XI4/NET_1 XI0/XI0/NOR_OUT VSS! VSS! NMOS_VTL L=5e-08
+ W=2.1e-07 AD=2.94e-14 AS=2.94e-14 PD=7e-07 PS=7e-07
mXI0/XI0/XI4/MM_i_5 XI0/XI0/XI4/Z_NEG XI0/XI0/XI4/X1 XI0/XI0/XI4/NET_1 VSS!
+ NMOS_VTL L=5e-08 W=2.1e-07 AD=2.94e-14 AS=2.94e-14 PD=7e-07 PS=7e-07
mXI0/XI0/XI4/MM_i_2 XI0/XI0/XI4/Z_NEG XI0/CTRL0B<15> XI0/XI0/XI4/NET_0 VSS!
+ NMOS_VTL L=5e-08 W=2.1e-07 AD=2.94e-14 AS=2.94e-14 PD=7e-07 PS=7e-07
mXI0/XI0/XI4/MM_i_3 XI0/XI0/XI4/NET_0 OP0<15> VSS! VSS! NMOS_VTL L=5e-08
+ W=2.1e-07 AD=2.94e-14 AS=4.375e-14 PD=7e-07 PS=1.11e-06
mXI0/XI0/XI4/MM_i_0 XI0/XI0/MUX1 XI0/XI0/XI4/Z_NEG VSS! VSS! NMOS_VTL L=5e-08
+ W=4.15e-07 AD=4.3575e-14 AS=4.375e-14 PD=1.04e-06 PS=1.11e-06
mXI0/XI0/XI4/MM_i_11 VDD! XI0/CTRL0B<15> XI0/XI0/XI4/X1 VDD! PMOS_VTL L=5e-08
+ W=3.15e-07 AD=4.41e-14 AS=3.3075e-14 PD=9.1e-07 PS=8.4e-07
mXI0/XI0/XI4/MM_i_8 VDD! XI0/XI0/NOR_OUT XI0/XI0/XI4/NET_2 VDD! PMOS_VTL L=5e-08
+ W=3.15e-07 AD=4.41e-14 AS=4.41e-14 PD=9.1e-07 PS=9.1e-07
mXI0/XI0/XI4/MM_i_6 XI0/XI0/XI4/NET_2 XI0/CTRL0B<15> XI0/XI0/XI4/Z_NEG VDD!
+ PMOS_VTL L=5e-08 W=3.15e-07 AD=4.41e-14 AS=4.41e-14 PD=9.1e-07 PS=9.1e-07
mXI0/XI0/XI4/MM_i_9 XI0/XI0/XI4/NET_3 XI0/XI0/XI4/X1 XI0/XI0/XI4/Z_NEG VDD!
+ PMOS_VTL L=5e-08 W=3.15e-07 AD=4.41e-14 AS=4.41e-14 PD=9.1e-07 PS=9.1e-07
mXI0/XI0/XI4/MM_i_7 VDD! OP0<15> XI0/XI0/XI4/NET_3 VDD! PMOS_VTL L=5e-08
+ W=3.15e-07 AD=6.615e-14 AS=4.41e-14 PD=1.54e-06 PS=9.1e-07
mXI0/XI0/XI4/MM_i_1 XI0/XI0/MUX1 XI0/XI0/XI4/Z_NEG VDD! VDD! PMOS_VTL L=5e-08
+ W=6.3e-07 AD=6.615e-14 AS=6.615e-14 PD=1.47e-06 PS=1.54e-06
mXI0/XI0/XI5/XI0/MM_i_10 VSS! XI0/CTRL1B<15> XI0/XI0/XI5/XI0/X1 VSS! NMOS_VTL
+ L=5e-08 W=2.1e-07 AD=2.94e-14 AS=2.205e-14 PD=7e-07 PS=6.3e-07
mXI0/XI0/XI5/XI0/MM_i_4 XI0/XI0/XI5/XI0/NET_1 XI0/XI0/MUX0 VSS! VSS! NMOS_VTL
+ L=5e-08 W=2.1e-07 AD=2.94e-14 AS=2.94e-14 PD=7e-07 PS=7e-07
mXI0/XI0/XI5/XI0/MM_i_5 XI0/XI0/XI5/XI0/Z_NEG XI0/XI0/XI5/XI0/X1
+ XI0/XI0/XI5/XI0/NET_1 VSS! NMOS_VTL L=5e-08 W=2.1e-07 AD=2.94e-14 AS=2.94e-14
+ PD=7e-07 PS=7e-07
mXI0/XI0/XI5/XI0/MM_i_2 XI0/XI0/XI5/XI0/Z_NEG XI0/CTRL1B<15>
+ XI0/XI0/XI5/XI0/NET_0 VSS! NMOS_VTL L=5e-08 W=2.1e-07 AD=2.94e-14 AS=2.94e-14
+ PD=7e-07 PS=7e-07
mXI0/XI0/XI5/XI0/MM_i_3 XI0/XI0/XI5/XI0/NET_0 XI0/XI0/MUX1 VSS! VSS! NMOS_VTL
+ L=5e-08 W=2.1e-07 AD=2.94e-14 AS=4.375e-14 PD=7e-07 PS=1.11e-06
mXI0/XI0/XI5/XI0/MM_i_0 XI0/XI0/XI5/Z XI0/XI0/XI5/XI0/Z_NEG VSS! VSS! NMOS_VTL
+ L=5e-08 W=4.15e-07 AD=4.3575e-14 AS=4.375e-14 PD=1.04e-06 PS=1.11e-06
mXI0/XI0/XI5/XI0/MM_i_11 VDD! XI0/CTRL1B<15> XI0/XI0/XI5/XI0/X1 VDD! PMOS_VTL
+ L=5e-08 W=3.15e-07 AD=4.41e-14 AS=3.3075e-14 PD=9.1e-07 PS=8.4e-07
mXI0/XI0/XI5/XI0/MM_i_8 VDD! XI0/XI0/MUX0 XI0/XI0/XI5/XI0/NET_2 VDD! PMOS_VTL
+ L=5e-08 W=3.15e-07 AD=4.41e-14 AS=4.41e-14 PD=9.1e-07 PS=9.1e-07
mXI0/XI0/XI5/XI0/MM_i_6 XI0/XI0/XI5/XI0/NET_2 XI0/CTRL1B<15>
+ XI0/XI0/XI5/XI0/Z_NEG VDD! PMOS_VTL L=5e-08 W=3.15e-07 AD=4.41e-14 AS=4.41e-14
+ PD=9.1e-07 PS=9.1e-07
mXI0/XI0/XI5/XI0/MM_i_9 XI0/XI0/XI5/XI0/NET_3 XI0/XI0/XI5/XI0/X1
+ XI0/XI0/XI5/XI0/Z_NEG VDD! PMOS_VTL L=5e-08 W=3.15e-07 AD=4.41e-14 AS=4.41e-14
+ PD=9.1e-07 PS=9.1e-07
mXI0/XI0/XI5/XI0/MM_i_7 VDD! XI0/XI0/MUX1 XI0/XI0/XI5/XI0/NET_3 VDD! PMOS_VTL
+ L=5e-08 W=3.15e-07 AD=6.615e-14 AS=4.41e-14 PD=1.54e-06 PS=9.1e-07
mXI0/XI0/XI5/XI0/MM_i_1 XI0/XI0/XI5/Z XI0/XI0/XI5/XI0/Z_NEG VDD! VDD! PMOS_VTL
+ L=5e-08 W=6.3e-07 AD=6.615e-14 AS=6.615e-14 PD=1.47e-06 PS=1.54e-06
mXI0/XI0/XI3/MM_i_10 VSS! XI0/CTRL0B<15> XI0/XI0/XI3/X1 VSS! NMOS_VTL L=5e-08
+ W=2.1e-07 AD=2.94e-14 AS=2.205e-14 PD=7e-07 PS=6.3e-07
mXI0/XI0/XI3/MM_i_4 XI0/XI0/XI3/NET_1 XI0/XI0/NAND_OUT VSS! VSS! NMOS_VTL
+ L=5e-08 W=2.1e-07 AD=2.94e-14 AS=2.94e-14 PD=7e-07 PS=7e-07
mXI0/XI0/XI3/MM_i_5 XI0/XI0/XI3/Z_NEG XI0/XI0/XI3/X1 XI0/XI0/XI3/NET_1 VSS!
+ NMOS_VTL L=5e-08 W=2.1e-07 AD=2.94e-14 AS=2.94e-14 PD=7e-07 PS=7e-07
mXI0/XI0/XI3/MM_i_2 XI0/XI0/XI3/Z_NEG XI0/CTRL0B<15> XI0/XI0/XI3/NET_0 VSS!
+ NMOS_VTL L=5e-08 W=2.1e-07 AD=2.94e-14 AS=2.94e-14 PD=7e-07 PS=7e-07
mXI0/XI0/XI3/MM_i_3 XI0/XI0/XI3/NET_0 XI0/XI0/XNOR_OUT VSS! VSS! NMOS_VTL
+ L=5e-08 W=2.1e-07 AD=2.94e-14 AS=4.375e-14 PD=7e-07 PS=1.11e-06
mXI0/XI0/XI3/MM_i_0 XI0/XI0/MUX0 XI0/XI0/XI3/Z_NEG VSS! VSS! NMOS_VTL L=5e-08
+ W=4.15e-07 AD=4.3575e-14 AS=4.375e-14 PD=1.04e-06 PS=1.11e-06
mXI0/XI0/XI3/MM_i_11 VDD! XI0/CTRL0B<15> XI0/XI0/XI3/X1 VDD! PMOS_VTL L=5e-08
+ W=3.15e-07 AD=4.41e-14 AS=3.3075e-14 PD=9.1e-07 PS=8.4e-07
mXI0/XI0/XI3/MM_i_8 VDD! XI0/XI0/NAND_OUT XI0/XI0/XI3/NET_2 VDD! PMOS_VTL
+ L=5e-08 W=3.15e-07 AD=4.41e-14 AS=4.41e-14 PD=9.1e-07 PS=9.1e-07
mXI0/XI0/XI3/MM_i_6 XI0/XI0/XI3/NET_2 XI0/CTRL0B<15> XI0/XI0/XI3/Z_NEG VDD!
+ PMOS_VTL L=5e-08 W=3.15e-07 AD=4.41e-14 AS=4.41e-14 PD=9.1e-07 PS=9.1e-07
mXI0/XI0/XI3/MM_i_9 XI0/XI0/XI3/NET_3 XI0/XI0/XI3/X1 XI0/XI0/XI3/Z_NEG VDD!
+ PMOS_VTL L=5e-08 W=3.15e-07 AD=4.41e-14 AS=4.41e-14 PD=9.1e-07 PS=9.1e-07
mXI0/XI0/XI3/MM_i_7 VDD! XI0/XI0/XNOR_OUT XI0/XI0/XI3/NET_3 VDD! PMOS_VTL
+ L=5e-08 W=3.15e-07 AD=6.615e-14 AS=4.41e-14 PD=1.54e-06 PS=9.1e-07
mXI0/XI0/XI3/MM_i_1 XI0/XI0/MUX0 XI0/XI0/XI3/Z_NEG VDD! VDD! PMOS_VTL L=5e-08
+ W=6.3e-07 AD=6.615e-14 AS=6.615e-14 PD=1.47e-06 PS=1.54e-06
mXI2/XI2<14>/MM_i_0_0_x4_0 VSS! XI2/NET3<1> ALU_OUT<14> VSS! NMOS_VTL L=5e-08
+ W=4.15e-07 AD=4.3575e-14 AS=5.81e-14 PD=1.04e-06 PS=1.11e-06
mXI2/XI2<14>/MM_i_0_0_x4_1 VSS! XI2/NET3<1> ALU_OUT<14> VSS! NMOS_VTL L=5e-08
+ W=4.15e-07 AD=5.81e-14 AS=5.81e-14 PD=1.11e-06 PS=1.11e-06
mXI2/XI2<14>/MM_i_0_0_x4_2 VSS! XI2/NET3<1> ALU_OUT<14> VSS! NMOS_VTL L=5e-08
+ W=4.15e-07 AD=5.81e-14 AS=5.81e-14 PD=1.11e-06 PS=1.11e-06
mXI2/XI2<14>/MM_i_0_0_x4_3 VSS! XI2/NET3<1> ALU_OUT<14> VSS! NMOS_VTL L=5e-08
+ W=4.15e-07 AD=4.3575e-14 AS=5.81e-14 PD=1.04e-06 PS=1.11e-06
mXI2/XI2<14>/MM_i_1_0_x4_0 VDD! XI2/NET3<1> ALU_OUT<14> VDD! PMOS_VTL L=5e-08
+ W=6.3e-07 AD=6.615e-14 AS=8.82e-14 PD=1.47e-06 PS=1.54e-06
mXI2/XI2<14>/MM_i_1_0_x4_1 VDD! XI2/NET3<1> ALU_OUT<14> VDD! PMOS_VTL L=5e-08
+ W=6.3e-07 AD=8.82e-14 AS=8.82e-14 PD=1.54e-06 PS=1.54e-06
mXI2/XI2<14>/MM_i_1_0_x4_2 VDD! XI2/NET3<1> ALU_OUT<14> VDD! PMOS_VTL L=5e-08
+ W=6.3e-07 AD=8.82e-14 AS=8.82e-14 PD=1.54e-06 PS=1.54e-06
mXI2/XI2<14>/MM_i_1_0_x4_3 VDD! XI2/NET3<1> ALU_OUT<14> VDD! PMOS_VTL L=5e-08
+ W=6.3e-07 AD=6.615e-14 AS=8.82e-14 PD=1.47e-06 PS=1.54e-06
mXI2/XI1<14>/MM_i_0 XI2/NET3<1> XI2/ALU_PRE<14> VSS! VSS! NMOS_VTL L=5e-08
+ W=4.15e-07 AD=4.3575e-14 AS=4.3575e-14 PD=1.04e-06 PS=1.04e-06
mXI2/XI1<14>/MM_i_1 XI2/NET3<1> XI2/ALU_PRE<14> VDD! VDD! PMOS_VTL L=5e-08
+ W=6.3e-07 AD=6.615e-14 AS=6.615e-14 PD=1.47e-06 PS=1.47e-06
mXI2/XI0<14>/MM_i_10 VSS! XI2/CTRL_2_BUF<14> XI2/XI0<14>/X1 VSS! NMOS_VTL
+ L=5e-08 W=2.1e-07 AD=2.94e-14 AS=2.205e-14 PD=7e-07 PS=6.3e-07
mXI2/XI0<14>/MM_i_4 XI2/XI0<14>/NET_1 LOGIC_OUT<14> VSS! VSS! NMOS_VTL L=5e-08
+ W=2.1e-07 AD=2.94e-14 AS=2.94e-14 PD=7e-07 PS=7e-07
mXI2/XI0<14>/MM_i_5 XI2/XI0<14>/Z_NEG XI2/XI0<14>/X1 XI2/XI0<14>/NET_1 VSS!
+ NMOS_VTL L=5e-08 W=2.1e-07 AD=2.94e-14 AS=2.94e-14 PD=7e-07 PS=7e-07
mXI2/XI0<14>/MM_i_2 XI2/XI0<14>/Z_NEG XI2/CTRL_2_BUF<14> XI2/XI0<14>/NET_0 VSS!
+ NMOS_VTL L=5e-08 W=2.1e-07 AD=2.94e-14 AS=2.94e-14 PD=7e-07 PS=7e-07
mXI2/XI0<14>/MM_i_3 XI2/XI0<14>/NET_0 ARITHMETIC_OUT<14> VSS! VSS! NMOS_VTL
+ L=5e-08 W=2.1e-07 AD=2.94e-14 AS=4.375e-14 PD=7e-07 PS=1.11e-06
mXI2/XI0<14>/MM_i_0 XI2/ALU_PRE<14> XI2/XI0<14>/Z_NEG VSS! VSS! NMOS_VTL L=5e-08
+ W=4.15e-07 AD=4.3575e-14 AS=4.375e-14 PD=1.04e-06 PS=1.11e-06
mXI2/XI0<14>/MM_i_11 VDD! XI2/CTRL_2_BUF<14> XI2/XI0<14>/X1 VDD! PMOS_VTL
+ L=5e-08 W=3.15e-07 AD=4.41e-14 AS=3.3075e-14 PD=9.1e-07 PS=8.4e-07
mXI2/XI0<14>/MM_i_8 VDD! LOGIC_OUT<14> XI2/XI0<14>/NET_2 VDD! PMOS_VTL L=5e-08
+ W=3.15e-07 AD=4.41e-14 AS=4.41e-14 PD=9.1e-07 PS=9.1e-07
mXI2/XI0<14>/MM_i_6 XI2/XI0<14>/NET_2 XI2/CTRL_2_BUF<14> XI2/XI0<14>/Z_NEG VDD!
+ PMOS_VTL L=5e-08 W=3.15e-07 AD=4.41e-14 AS=4.41e-14 PD=9.1e-07 PS=9.1e-07
mXI2/XI0<14>/MM_i_9 XI2/XI0<14>/NET_3 XI2/XI0<14>/X1 XI2/XI0<14>/Z_NEG VDD!
+ PMOS_VTL L=5e-08 W=3.15e-07 AD=4.41e-14 AS=4.41e-14 PD=9.1e-07 PS=9.1e-07
mXI2/XI0<14>/MM_i_7 VDD! ARITHMETIC_OUT<14> XI2/XI0<14>/NET_3 VDD! PMOS_VTL
+ L=5e-08 W=3.15e-07 AD=6.615e-14 AS=4.41e-14 PD=1.54e-06 PS=9.1e-07
mXI2/XI0<14>/MM_i_1 XI2/ALU_PRE<14> XI2/XI0<14>/Z_NEG VDD! VDD! PMOS_VTL L=5e-08
+ W=6.3e-07 AD=6.615e-14 AS=6.615e-14 PD=1.47e-06 PS=1.54e-06
mXI2/XI25/MM_i_2 VSS! XI2/CTRL_2_BUF<15> XI2/XI25/Z_NEG VSS! NMOS_VTL L=5e-08
+ W=2.1e-07 AD=4.375e-14 AS=2.205e-14 PD=1.11e-06 PS=6.3e-07
mXI2/XI25/MM_i_0 XI2/CTRL_2_BUF<14> XI2/XI25/Z_NEG VSS! VSS! NMOS_VTL L=5e-08
+ W=4.15e-07 AD=4.3575e-14 AS=4.375e-14 PD=1.04e-06 PS=1.11e-06
mXI2/XI25/MM_i_3 VDD! XI2/CTRL_2_BUF<15> XI2/XI25/Z_NEG VDD! PMOS_VTL L=5e-08
+ W=3.15e-07 AD=6.615e-14 AS=3.3075e-14 PD=1.54e-06 PS=8.4e-07
mXI2/XI25/MM_i_1 XI2/CTRL_2_BUF<14> XI2/XI25/Z_NEG VDD! VDD! PMOS_VTL L=5e-08
+ W=6.3e-07 AD=6.615e-14 AS=6.615e-14 PD=1.47e-06 PS=1.54e-06
mXI0/XI19<1>/MM_i_2 VSS! XI0/CTRL1B<14> XI0/XI19<1>/Z_NEG VSS! NMOS_VTL L=5e-08
+ W=2.1e-07 AD=4.375e-14 AS=2.205e-14 PD=1.11e-06 PS=6.3e-07
mXI0/XI19<1>/MM_i_0 XI0/CTRL1B<15> XI0/XI19<1>/Z_NEG VSS! VSS! NMOS_VTL L=5e-08
+ W=4.15e-07 AD=4.3575e-14 AS=4.375e-14 PD=1.04e-06 PS=1.11e-06
mXI0/XI19<1>/MM_i_3 VDD! XI0/CTRL1B<14> XI0/XI19<1>/Z_NEG VDD! PMOS_VTL L=5e-08
+ W=3.15e-07 AD=6.615e-14 AS=3.3075e-14 PD=1.54e-06 PS=8.4e-07
mXI0/XI19<1>/MM_i_1 XI0/CTRL1B<15> XI0/XI19<1>/Z_NEG VDD! VDD! PMOS_VTL L=5e-08
+ W=6.3e-07 AD=6.615e-14 AS=6.615e-14 PD=1.47e-06 PS=1.54e-06
mXI0/XI19<0>/MM_i_2 VSS! XI0/CTRL0B<14> XI0/XI19<0>/Z_NEG VSS! NMOS_VTL L=5e-08
+ W=2.1e-07 AD=4.375e-14 AS=2.205e-14 PD=1.11e-06 PS=6.3e-07
mXI0/XI19<0>/MM_i_0 XI0/CTRL0B<15> XI0/XI19<0>/Z_NEG VSS! VSS! NMOS_VTL L=5e-08
+ W=4.15e-07 AD=4.3575e-14 AS=4.375e-14 PD=1.04e-06 PS=1.11e-06
mXI0/XI19<0>/MM_i_3 VDD! XI0/CTRL0B<14> XI0/XI19<0>/Z_NEG VDD! PMOS_VTL L=5e-08
+ W=3.15e-07 AD=6.615e-14 AS=3.3075e-14 PD=1.54e-06 PS=8.4e-07
mXI0/XI19<0>/MM_i_1 XI0/CTRL0B<15> XI0/XI19<0>/Z_NEG VDD! VDD! PMOS_VTL L=5e-08
+ W=6.3e-07 AD=6.615e-14 AS=6.615e-14 PD=1.47e-06 PS=1.54e-06
mXI0/XI4/XI0/MM_i_1 XI0/XI4/XI0/NET_0 OP0<14> VSS! VSS! NMOS_VTL L=5e-08
+ W=4.15e-07 AD=5.81e-14 AS=4.3575e-14 PD=1.11e-06 PS=1.04e-06
mXI0/XI4/XI0/MM_i_0 XI0/XI4/NAND_OUT OP1<14> XI0/XI4/XI0/NET_0 VSS! NMOS_VTL
+ L=5e-08 W=4.15e-07 AD=4.3575e-14 AS=5.81e-14 PD=1.04e-06 PS=1.11e-06
mXI0/XI4/XI1/MM_i_0 XI0/XI4/XI1/NET_001 OP1<14> XI0/XI4/XI1/NET_000 VSS!
+ NMOS_VTL L=5e-08 W=2.1e-07 AD=2.94e-14 AS=2.205e-14 PD=7e-07 PS=6.3e-07
mXI0/XI4/XI1/MM_i_5 VSS! OP0<14> XI0/XI4/XI1/NET_001 VSS! NMOS_VTL L=5e-08
+ W=2.1e-07 AD=4.48e-14 AS=2.94e-14 PD=1.12e-06 PS=7e-07
mXI0/XI4/XI1/MM_i_11 XI0/XI4/XI1/NET_002 XI0/XI4/XI1/NET_000 VSS! VSS! NMOS_VTL
+ L=5e-08 W=4.15e-07 AD=5.81e-14 AS=4.48e-14 PD=1.11e-06 PS=1.12e-06
mXI0/XI4/XI1/MM_i_17 XI0/XI4/XNOR_OUT OP1<14> XI0/XI4/XI1/NET_002 VSS! NMOS_VTL
+ L=5e-08 W=4.15e-07 AD=5.81e-14 AS=5.81e-14 PD=1.11e-06 PS=1.11e-06
mXI0/XI4/XI1/MM_i_23 XI0/XI4/XI1/NET_002 OP0<14> XI0/XI4/XNOR_OUT VSS! NMOS_VTL
+ L=5e-08 W=4.15e-07 AD=4.3575e-14 AS=5.81e-14 PD=1.04e-06 PS=1.11e-06
mXI0/XI4/XI2/MM_i_1 XI0/XI4/NOR_OUT OP0<14> VSS! VSS! NMOS_VTL L=5e-08
+ W=4.15e-07 AD=5.81e-14 AS=4.3575e-14 PD=1.11e-06 PS=1.04e-06
mXI0/XI4/XI2/MM_i_0 VSS! OP1<14> XI0/XI4/NOR_OUT VSS! NMOS_VTL L=5e-08
+ W=4.15e-07 AD=4.3575e-14 AS=5.81e-14 PD=1.04e-06 PS=1.11e-06
mXI0/XI4/XI0/MM_i_3 XI0/XI4/NAND_OUT OP0<14> VDD! VDD! PMOS_VTL L=5e-08
+ W=6.3e-07 AD=8.82e-14 AS=6.615e-14 PD=1.54e-06 PS=1.47e-06
mXI0/XI4/XI0/MM_i_2 VDD! OP1<14> XI0/XI4/NAND_OUT VDD! PMOS_VTL L=5e-08
+ W=6.3e-07 AD=6.615e-14 AS=8.82e-14 PD=1.47e-06 PS=1.54e-06
mXI0/XI4/XI1/MM_i_29 XI0/XI4/XI1/NET_000 OP1<14> VDD! VDD! PMOS_VTL L=5e-08
+ W=3.15e-07 AD=4.41e-14 AS=3.3075e-14 PD=9.1e-07 PS=8.4e-07
mXI0/XI4/XI1/MM_i_36 VDD! OP0<14> XI0/XI4/XI1/NET_000 VDD! PMOS_VTL L=5e-08
+ W=3.15e-07 AD=6.7725e-14 AS=4.41e-14 PD=1.55e-06 PS=9.1e-07
mXI0/XI4/XI1/MM_i_42 XI0/XI4/XNOR_OUT XI0/XI4/XI1/NET_000 VDD! VDD! PMOS_VTL
+ L=5e-08 W=6.3e-07 AD=8.82e-14 AS=6.7725e-14 PD=1.54e-06 PS=1.55e-06
mXI0/XI4/XI1/MM_i_48 XI0/XI4/XI1/NET_003 OP1<14> XI0/XI4/XNOR_OUT VDD! PMOS_VTL
+ L=5e-08 W=6.3e-07 AD=8.82e-14 AS=8.82e-14 PD=1.54e-06 PS=1.54e-06
mXI0/XI4/XI1/MM_i_53 VDD! OP0<14> XI0/XI4/XI1/NET_003 VDD! PMOS_VTL L=5e-08
+ W=6.3e-07 AD=6.615e-14 AS=8.82e-14 PD=1.47e-06 PS=1.54e-06
mXI0/XI4/XI2/MM_i_3 XI0/XI4/XI2/NET_0 OP0<14> VDD! VDD! PMOS_VTL L=5e-08
+ W=6.3e-07 AD=8.82e-14 AS=6.615e-14 PD=1.54e-06 PS=1.47e-06
mXI0/XI4/XI2/MM_i_2 XI0/XI4/NOR_OUT OP1<14> XI0/XI4/XI2/NET_0 VDD! PMOS_VTL
+ L=5e-08 W=6.3e-07 AD=6.615e-14 AS=8.82e-14 PD=1.47e-06 PS=1.54e-06
mXI0/XI4/XI5/XI1/MM_i_0 LOGIC_PRE<14> XI0/XI4/XI5/Z VSS! VSS! NMOS_VTL L=5e-08
+ W=4.15e-07 AD=4.3575e-14 AS=4.3575e-14 PD=1.04e-06 PS=1.04e-06
mXI0/XI4/XI5/XI1/MM_i_1 LOGIC_PRE<14> XI0/XI4/XI5/Z VDD! VDD! PMOS_VTL L=5e-08
+ W=6.3e-07 AD=6.615e-14 AS=6.615e-14 PD=1.47e-06 PS=1.47e-06
mXI0/XI4/XI4/MM_i_10 VSS! XI0/CTRL0B<14> XI0/XI4/XI4/X1 VSS! NMOS_VTL L=5e-08
+ W=2.1e-07 AD=2.94e-14 AS=2.205e-14 PD=7e-07 PS=6.3e-07
mXI0/XI4/XI4/MM_i_4 XI0/XI4/XI4/NET_1 XI0/XI4/NOR_OUT VSS! VSS! NMOS_VTL L=5e-08
+ W=2.1e-07 AD=2.94e-14 AS=2.94e-14 PD=7e-07 PS=7e-07
mXI0/XI4/XI4/MM_i_5 XI0/XI4/XI4/Z_NEG XI0/XI4/XI4/X1 XI0/XI4/XI4/NET_1 VSS!
+ NMOS_VTL L=5e-08 W=2.1e-07 AD=2.94e-14 AS=2.94e-14 PD=7e-07 PS=7e-07
mXI0/XI4/XI4/MM_i_2 XI0/XI4/XI4/Z_NEG XI0/CTRL0B<14> XI0/XI4/XI4/NET_0 VSS!
+ NMOS_VTL L=5e-08 W=2.1e-07 AD=2.94e-14 AS=2.94e-14 PD=7e-07 PS=7e-07
mXI0/XI4/XI4/MM_i_3 XI0/XI4/XI4/NET_0 OP0<14> VSS! VSS! NMOS_VTL L=5e-08
+ W=2.1e-07 AD=2.94e-14 AS=4.375e-14 PD=7e-07 PS=1.11e-06
mXI0/XI4/XI4/MM_i_0 XI0/XI4/MUX1 XI0/XI4/XI4/Z_NEG VSS! VSS! NMOS_VTL L=5e-08
+ W=4.15e-07 AD=4.3575e-14 AS=4.375e-14 PD=1.04e-06 PS=1.11e-06
mXI0/XI4/XI4/MM_i_11 VDD! XI0/CTRL0B<14> XI0/XI4/XI4/X1 VDD! PMOS_VTL L=5e-08
+ W=3.15e-07 AD=4.41e-14 AS=3.3075e-14 PD=9.1e-07 PS=8.4e-07
mXI0/XI4/XI4/MM_i_8 VDD! XI0/XI4/NOR_OUT XI0/XI4/XI4/NET_2 VDD! PMOS_VTL L=5e-08
+ W=3.15e-07 AD=4.41e-14 AS=4.41e-14 PD=9.1e-07 PS=9.1e-07
mXI0/XI4/XI4/MM_i_6 XI0/XI4/XI4/NET_2 XI0/CTRL0B<14> XI0/XI4/XI4/Z_NEG VDD!
+ PMOS_VTL L=5e-08 W=3.15e-07 AD=4.41e-14 AS=4.41e-14 PD=9.1e-07 PS=9.1e-07
mXI0/XI4/XI4/MM_i_9 XI0/XI4/XI4/NET_3 XI0/XI4/XI4/X1 XI0/XI4/XI4/Z_NEG VDD!
+ PMOS_VTL L=5e-08 W=3.15e-07 AD=4.41e-14 AS=4.41e-14 PD=9.1e-07 PS=9.1e-07
mXI0/XI4/XI4/MM_i_7 VDD! OP0<14> XI0/XI4/XI4/NET_3 VDD! PMOS_VTL L=5e-08
+ W=3.15e-07 AD=6.615e-14 AS=4.41e-14 PD=1.54e-06 PS=9.1e-07
mXI0/XI4/XI4/MM_i_1 XI0/XI4/MUX1 XI0/XI4/XI4/Z_NEG VDD! VDD! PMOS_VTL L=5e-08
+ W=6.3e-07 AD=6.615e-14 AS=6.615e-14 PD=1.47e-06 PS=1.54e-06
mXI0/XI4/XI5/XI0/MM_i_10 VSS! XI0/CTRL1B<14> XI0/XI4/XI5/XI0/X1 VSS! NMOS_VTL
+ L=5e-08 W=2.1e-07 AD=2.94e-14 AS=2.205e-14 PD=7e-07 PS=6.3e-07
mXI0/XI4/XI5/XI0/MM_i_4 XI0/XI4/XI5/XI0/NET_1 XI0/XI4/MUX0 VSS! VSS! NMOS_VTL
+ L=5e-08 W=2.1e-07 AD=2.94e-14 AS=2.94e-14 PD=7e-07 PS=7e-07
mXI0/XI4/XI5/XI0/MM_i_5 XI0/XI4/XI5/XI0/Z_NEG XI0/XI4/XI5/XI0/X1
+ XI0/XI4/XI5/XI0/NET_1 VSS! NMOS_VTL L=5e-08 W=2.1e-07 AD=2.94e-14 AS=2.94e-14
+ PD=7e-07 PS=7e-07
mXI0/XI4/XI5/XI0/MM_i_2 XI0/XI4/XI5/XI0/Z_NEG XI0/CTRL1B<14>
+ XI0/XI4/XI5/XI0/NET_0 VSS! NMOS_VTL L=5e-08 W=2.1e-07 AD=2.94e-14 AS=2.94e-14
+ PD=7e-07 PS=7e-07
mXI0/XI4/XI5/XI0/MM_i_3 XI0/XI4/XI5/XI0/NET_0 XI0/XI4/MUX1 VSS! VSS! NMOS_VTL
+ L=5e-08 W=2.1e-07 AD=2.94e-14 AS=4.375e-14 PD=7e-07 PS=1.11e-06
mXI0/XI4/XI5/XI0/MM_i_0 XI0/XI4/XI5/Z XI0/XI4/XI5/XI0/Z_NEG VSS! VSS! NMOS_VTL
+ L=5e-08 W=4.15e-07 AD=4.3575e-14 AS=4.375e-14 PD=1.04e-06 PS=1.11e-06
mXI0/XI4/XI5/XI0/MM_i_11 VDD! XI0/CTRL1B<14> XI0/XI4/XI5/XI0/X1 VDD! PMOS_VTL
+ L=5e-08 W=3.15e-07 AD=4.41e-14 AS=3.3075e-14 PD=9.1e-07 PS=8.4e-07
mXI0/XI4/XI5/XI0/MM_i_8 VDD! XI0/XI4/MUX0 XI0/XI4/XI5/XI0/NET_2 VDD! PMOS_VTL
+ L=5e-08 W=3.15e-07 AD=4.41e-14 AS=4.41e-14 PD=9.1e-07 PS=9.1e-07
mXI0/XI4/XI5/XI0/MM_i_6 XI0/XI4/XI5/XI0/NET_2 XI0/CTRL1B<14>
+ XI0/XI4/XI5/XI0/Z_NEG VDD! PMOS_VTL L=5e-08 W=3.15e-07 AD=4.41e-14 AS=4.41e-14
+ PD=9.1e-07 PS=9.1e-07
mXI0/XI4/XI5/XI0/MM_i_9 XI0/XI4/XI5/XI0/NET_3 XI0/XI4/XI5/XI0/X1
+ XI0/XI4/XI5/XI0/Z_NEG VDD! PMOS_VTL L=5e-08 W=3.15e-07 AD=4.41e-14 AS=4.41e-14
+ PD=9.1e-07 PS=9.1e-07
mXI0/XI4/XI5/XI0/MM_i_7 VDD! XI0/XI4/MUX1 XI0/XI4/XI5/XI0/NET_3 VDD! PMOS_VTL
+ L=5e-08 W=3.15e-07 AD=6.615e-14 AS=4.41e-14 PD=1.54e-06 PS=9.1e-07
mXI0/XI4/XI5/XI0/MM_i_1 XI0/XI4/XI5/Z XI0/XI4/XI5/XI0/Z_NEG VDD! VDD! PMOS_VTL
+ L=5e-08 W=6.3e-07 AD=6.615e-14 AS=6.615e-14 PD=1.47e-06 PS=1.54e-06
mXI0/XI4/XI3/MM_i_10 VSS! XI0/CTRL0B<14> XI0/XI4/XI3/X1 VSS! NMOS_VTL L=5e-08
+ W=2.1e-07 AD=2.94e-14 AS=2.205e-14 PD=7e-07 PS=6.3e-07
mXI0/XI4/XI3/MM_i_4 XI0/XI4/XI3/NET_1 XI0/XI4/NAND_OUT VSS! VSS! NMOS_VTL
+ L=5e-08 W=2.1e-07 AD=2.94e-14 AS=2.94e-14 PD=7e-07 PS=7e-07
mXI0/XI4/XI3/MM_i_5 XI0/XI4/XI3/Z_NEG XI0/XI4/XI3/X1 XI0/XI4/XI3/NET_1 VSS!
+ NMOS_VTL L=5e-08 W=2.1e-07 AD=2.94e-14 AS=2.94e-14 PD=7e-07 PS=7e-07
mXI0/XI4/XI3/MM_i_2 XI0/XI4/XI3/Z_NEG XI0/CTRL0B<14> XI0/XI4/XI3/NET_0 VSS!
+ NMOS_VTL L=5e-08 W=2.1e-07 AD=2.94e-14 AS=2.94e-14 PD=7e-07 PS=7e-07
mXI0/XI4/XI3/MM_i_3 XI0/XI4/XI3/NET_0 XI0/XI4/XNOR_OUT VSS! VSS! NMOS_VTL
+ L=5e-08 W=2.1e-07 AD=2.94e-14 AS=4.375e-14 PD=7e-07 PS=1.11e-06
mXI0/XI4/XI3/MM_i_0 XI0/XI4/MUX0 XI0/XI4/XI3/Z_NEG VSS! VSS! NMOS_VTL L=5e-08
+ W=4.15e-07 AD=4.3575e-14 AS=4.375e-14 PD=1.04e-06 PS=1.11e-06
mXI0/XI4/XI3/MM_i_11 VDD! XI0/CTRL0B<14> XI0/XI4/XI3/X1 VDD! PMOS_VTL L=5e-08
+ W=3.15e-07 AD=4.41e-14 AS=3.3075e-14 PD=9.1e-07 PS=8.4e-07
mXI0/XI4/XI3/MM_i_8 VDD! XI0/XI4/NAND_OUT XI0/XI4/XI3/NET_2 VDD! PMOS_VTL
+ L=5e-08 W=3.15e-07 AD=4.41e-14 AS=4.41e-14 PD=9.1e-07 PS=9.1e-07
mXI0/XI4/XI3/MM_i_6 XI0/XI4/XI3/NET_2 XI0/CTRL0B<14> XI0/XI4/XI3/Z_NEG VDD!
+ PMOS_VTL L=5e-08 W=3.15e-07 AD=4.41e-14 AS=4.41e-14 PD=9.1e-07 PS=9.1e-07
mXI0/XI4/XI3/MM_i_9 XI0/XI4/XI3/NET_3 XI0/XI4/XI3/X1 XI0/XI4/XI3/Z_NEG VDD!
+ PMOS_VTL L=5e-08 W=3.15e-07 AD=4.41e-14 AS=4.41e-14 PD=9.1e-07 PS=9.1e-07
mXI0/XI4/XI3/MM_i_7 VDD! XI0/XI4/XNOR_OUT XI0/XI4/XI3/NET_3 VDD! PMOS_VTL
+ L=5e-08 W=3.15e-07 AD=6.615e-14 AS=4.41e-14 PD=1.54e-06 PS=9.1e-07
mXI0/XI4/XI3/MM_i_1 XI0/XI4/MUX0 XI0/XI4/XI3/Z_NEG VDD! VDD! PMOS_VTL L=5e-08
+ W=6.3e-07 AD=6.615e-14 AS=6.615e-14 PD=1.47e-06 PS=1.54e-06
mXI2/XI2<1>/MM_i_0_0_x4_0 VSS! XI2/NET3<14> ALU_OUT<1> VSS! NMOS_VTL L=5e-08
+ W=4.15e-07 AD=4.3575e-14 AS=5.81e-14 PD=1.04e-06 PS=1.11e-06
mXI2/XI2<1>/MM_i_0_0_x4_1 VSS! XI2/NET3<14> ALU_OUT<1> VSS! NMOS_VTL L=5e-08
+ W=4.15e-07 AD=5.81e-14 AS=5.81e-14 PD=1.11e-06 PS=1.11e-06
mXI2/XI2<1>/MM_i_0_0_x4_2 VSS! XI2/NET3<14> ALU_OUT<1> VSS! NMOS_VTL L=5e-08
+ W=4.15e-07 AD=5.81e-14 AS=5.81e-14 PD=1.11e-06 PS=1.11e-06
mXI2/XI2<1>/MM_i_0_0_x4_3 VSS! XI2/NET3<14> ALU_OUT<1> VSS! NMOS_VTL L=5e-08
+ W=4.15e-07 AD=4.3575e-14 AS=5.81e-14 PD=1.04e-06 PS=1.11e-06
mXI2/XI2<1>/MM_i_1_0_x4_0 VDD! XI2/NET3<14> ALU_OUT<1> VDD! PMOS_VTL L=5e-08
+ W=6.3e-07 AD=6.615e-14 AS=8.82e-14 PD=1.47e-06 PS=1.54e-06
mXI2/XI2<1>/MM_i_1_0_x4_1 VDD! XI2/NET3<14> ALU_OUT<1> VDD! PMOS_VTL L=5e-08
+ W=6.3e-07 AD=8.82e-14 AS=8.82e-14 PD=1.54e-06 PS=1.54e-06
mXI2/XI2<1>/MM_i_1_0_x4_2 VDD! XI2/NET3<14> ALU_OUT<1> VDD! PMOS_VTL L=5e-08
+ W=6.3e-07 AD=8.82e-14 AS=8.82e-14 PD=1.54e-06 PS=1.54e-06
mXI2/XI2<1>/MM_i_1_0_x4_3 VDD! XI2/NET3<14> ALU_OUT<1> VDD! PMOS_VTL L=5e-08
+ W=6.3e-07 AD=6.615e-14 AS=8.82e-14 PD=1.47e-06 PS=1.54e-06
mXI2/XI1<1>/MM_i_0 XI2/NET3<14> XI2/ALU_PRE<1> VSS! VSS! NMOS_VTL L=5e-08
+ W=4.15e-07 AD=4.3575e-14 AS=4.3575e-14 PD=1.04e-06 PS=1.04e-06
mXI2/XI1<1>/MM_i_1 XI2/NET3<14> XI2/ALU_PRE<1> VDD! VDD! PMOS_VTL L=5e-08
+ W=6.3e-07 AD=6.615e-14 AS=6.615e-14 PD=1.47e-06 PS=1.47e-06
mXI2/XI0<1>/MM_i_10 VSS! XI2/CTRL_2_BUF<1> XI2/XI0<1>/X1 VSS! NMOS_VTL L=5e-08
+ W=2.1e-07 AD=2.94e-14 AS=2.205e-14 PD=7e-07 PS=6.3e-07
mXI2/XI0<1>/MM_i_4 XI2/XI0<1>/NET_1 LOGIC_OUT<1> VSS! VSS! NMOS_VTL L=5e-08
+ W=2.1e-07 AD=2.94e-14 AS=2.94e-14 PD=7e-07 PS=7e-07
mXI2/XI0<1>/MM_i_5 XI2/XI0<1>/Z_NEG XI2/XI0<1>/X1 XI2/XI0<1>/NET_1 VSS! NMOS_VTL
+ L=5e-08 W=2.1e-07 AD=2.94e-14 AS=2.94e-14 PD=7e-07 PS=7e-07
mXI2/XI0<1>/MM_i_2 XI2/XI0<1>/Z_NEG XI2/CTRL_2_BUF<1> XI2/XI0<1>/NET_0 VSS!
+ NMOS_VTL L=5e-08 W=2.1e-07 AD=2.94e-14 AS=2.94e-14 PD=7e-07 PS=7e-07
mXI2/XI0<1>/MM_i_3 XI2/XI0<1>/NET_0 ARITHMETIC_OUT<1> VSS! VSS! NMOS_VTL L=5e-08
+ W=2.1e-07 AD=2.94e-14 AS=4.375e-14 PD=7e-07 PS=1.11e-06
mXI2/XI0<1>/MM_i_0 XI2/ALU_PRE<1> XI2/XI0<1>/Z_NEG VSS! VSS! NMOS_VTL L=5e-08
+ W=4.15e-07 AD=4.3575e-14 AS=4.375e-14 PD=1.04e-06 PS=1.11e-06
mXI2/XI0<1>/MM_i_11 VDD! XI2/CTRL_2_BUF<1> XI2/XI0<1>/X1 VDD! PMOS_VTL L=5e-08
+ W=3.15e-07 AD=4.41e-14 AS=3.3075e-14 PD=9.1e-07 PS=8.4e-07
mXI2/XI0<1>/MM_i_8 VDD! LOGIC_OUT<1> XI2/XI0<1>/NET_2 VDD! PMOS_VTL L=5e-08
+ W=3.15e-07 AD=4.41e-14 AS=4.41e-14 PD=9.1e-07 PS=9.1e-07
mXI2/XI0<1>/MM_i_6 XI2/XI0<1>/NET_2 XI2/CTRL_2_BUF<1> XI2/XI0<1>/Z_NEG VDD!
+ PMOS_VTL L=5e-08 W=3.15e-07 AD=4.41e-14 AS=4.41e-14 PD=9.1e-07 PS=9.1e-07
mXI2/XI0<1>/MM_i_9 XI2/XI0<1>/NET_3 XI2/XI0<1>/X1 XI2/XI0<1>/Z_NEG VDD! PMOS_VTL
+ L=5e-08 W=3.15e-07 AD=4.41e-14 AS=4.41e-14 PD=9.1e-07 PS=9.1e-07
mXI2/XI0<1>/MM_i_7 VDD! ARITHMETIC_OUT<1> XI2/XI0<1>/NET_3 VDD! PMOS_VTL L=5e-08
+ W=3.15e-07 AD=6.615e-14 AS=4.41e-14 PD=1.54e-06 PS=9.1e-07
mXI2/XI0<1>/MM_i_1 XI2/ALU_PRE<1> XI2/XI0<1>/Z_NEG VDD! VDD! PMOS_VTL L=5e-08
+ W=6.3e-07 AD=6.615e-14 AS=6.615e-14 PD=1.47e-06 PS=1.54e-06
mXI2/XI4/MM_i_2 VSS! XI2/CTRL_2_BUF<2> XI2/XI4/Z_NEG VSS! NMOS_VTL L=5e-08
+ W=2.1e-07 AD=4.375e-14 AS=2.205e-14 PD=1.11e-06 PS=6.3e-07
mXI2/XI4/MM_i_0 XI2/CTRL_2_BUF<1> XI2/XI4/Z_NEG VSS! VSS! NMOS_VTL L=5e-08
+ W=4.15e-07 AD=4.3575e-14 AS=4.375e-14 PD=1.04e-06 PS=1.11e-06
mXI2/XI4/MM_i_3 VDD! XI2/CTRL_2_BUF<2> XI2/XI4/Z_NEG VDD! PMOS_VTL L=5e-08
+ W=3.15e-07 AD=6.615e-14 AS=3.3075e-14 PD=1.54e-06 PS=8.4e-07
mXI2/XI4/MM_i_1 XI2/CTRL_2_BUF<1> XI2/XI4/Z_NEG VDD! VDD! PMOS_VTL L=5e-08
+ W=6.3e-07 AD=6.615e-14 AS=6.615e-14 PD=1.47e-06 PS=1.54e-06
mXI2/XI2<0>/MM_i_0_0_x4_0 VSS! XI2/NET3<15> ALU_OUT<0> VSS! NMOS_VTL L=5e-08
+ W=4.15e-07 AD=4.3575e-14 AS=5.81e-14 PD=1.04e-06 PS=1.11e-06
mXI2/XI2<0>/MM_i_0_0_x4_1 VSS! XI2/NET3<15> ALU_OUT<0> VSS! NMOS_VTL L=5e-08
+ W=4.15e-07 AD=5.81e-14 AS=5.81e-14 PD=1.11e-06 PS=1.11e-06
mXI2/XI2<0>/MM_i_0_0_x4_2 VSS! XI2/NET3<15> ALU_OUT<0> VSS! NMOS_VTL L=5e-08
+ W=4.15e-07 AD=5.81e-14 AS=5.81e-14 PD=1.11e-06 PS=1.11e-06
mXI2/XI2<0>/MM_i_0_0_x4_3 VSS! XI2/NET3<15> ALU_OUT<0> VSS! NMOS_VTL L=5e-08
+ W=4.15e-07 AD=4.3575e-14 AS=5.81e-14 PD=1.04e-06 PS=1.11e-06
mXI2/XI2<0>/MM_i_1_0_x4_0 VDD! XI2/NET3<15> ALU_OUT<0> VDD! PMOS_VTL L=5e-08
+ W=6.3e-07 AD=6.615e-14 AS=8.82e-14 PD=1.47e-06 PS=1.54e-06
mXI2/XI2<0>/MM_i_1_0_x4_1 VDD! XI2/NET3<15> ALU_OUT<0> VDD! PMOS_VTL L=5e-08
+ W=6.3e-07 AD=8.82e-14 AS=8.82e-14 PD=1.54e-06 PS=1.54e-06
mXI2/XI2<0>/MM_i_1_0_x4_2 VDD! XI2/NET3<15> ALU_OUT<0> VDD! PMOS_VTL L=5e-08
+ W=6.3e-07 AD=8.82e-14 AS=8.82e-14 PD=1.54e-06 PS=1.54e-06
mXI2/XI2<0>/MM_i_1_0_x4_3 VDD! XI2/NET3<15> ALU_OUT<0> VDD! PMOS_VTL L=5e-08