* File: /gscratch/ece/courses/476/jarenas/jarenas_git/cad6/netlist/PEX/OUT_MUX_BUF_16B.pex.netlist
* Created: Fri Dec  3 16:13:59 2021
* Program "Calibre xRC"
* Version "v2021.3_35.19"
* 
.subckt OUT_MUX_BUF_16B  ARITHMETIC_OUT<0> LOGIC_OUT<0> ARITHMETIC_OUT<1>
+ LOGIC_OUT<1> ARITHMETIC_OUT<2> LOGIC_OUT<2> ARITHMETIC_OUT<3> LOGIC_OUT<3>
+ ARITHMETIC_OUT<4> LOGIC_OUT<4> ARITHMETIC_OUT<5> LOGIC_OUT<5>
+ ARITHMETIC_OUT<6> LOGIC_OUT<6> ARITHMETIC_OUT<7> LOGIC_OUT<7>
+ ARITHMETIC_OUT<8> LOGIC_OUT<8> ARITHMETIC_OUT<9> LOGIC_OUT<9>
+ ARITHMETIC_OUT<10> LOGIC_OUT<10> ARITHMETIC_OUT<11> LOGIC_OUT<11>
+ ARITHMETIC_OUT<12> LOGIC_OUT<12> ARITHMETIC_OUT<13> LOGIC_OUT<13>
+ ARITHMETIC_OUT<14> LOGIC_OUT<14> CTRL<2> ARITHMETIC_OUT<15> LOGIC_OUT<15>
+ ALU_OUT<0> ALU_OUT<1> ALU_OUT<2> ALU_OUT<3> ALU_OUT<4> ALU_OUT<5> ALU_OUT<6>
+ ALU_OUT<7> ALU_OUT<8> ALU_OUT<9> ALU_OUT<10> ALU_OUT<11> ALU_OUT<12>
+ ALU_OUT<13> ALU_OUT<14> ALU_PRE<15> ALU_OUT<15> VSS! VDD!
* 
mXI2<15>/MM_i_0_0_x4_0 VSS! NET3<0> ALU_OUT<15> VSS! NMOS_VTL L=5e-08 W=4.15e-07
+ AD=4.3575e-14 AS=5.81e-14 PD=1.04e-06 PS=1.11e-06
mXI2<15>/MM_i_0_0_x4_1 VSS! NET3<0> ALU_OUT<15> VSS! NMOS_VTL L=5e-08 W=4.15e-07
+ AD=5.81e-14 AS=5.81e-14 PD=1.11e-06 PS=1.11e-06
mXI2<15>/MM_i_0_0_x4_2 VSS! NET3<0> ALU_OUT<15> VSS! NMOS_VTL L=5e-08 W=4.15e-07
+ AD=5.81e-14 AS=5.81e-14 PD=1.11e-06 PS=1.11e-06
mXI2<15>/MM_i_0_0_x4_3 VSS! NET3<0> ALU_OUT<15> VSS! NMOS_VTL L=5e-08 W=4.15e-07
+ AD=4.3575e-14 AS=5.81e-14 PD=1.04e-06 PS=1.11e-06
mXI2<15>/MM_i_1_0_x4_0 VDD! NET3<0> ALU_OUT<15> VDD! PMOS_VTL L=5e-08 W=6.3e-07
+ AD=6.615e-14 AS=8.82e-14 PD=1.47e-06 PS=1.54e-06
mXI2<15>/MM_i_1_0_x4_1 VDD! NET3<0> ALU_OUT<15> VDD! PMOS_VTL L=5e-08 W=6.3e-07
+ AD=8.82e-14 AS=8.82e-14 PD=1.54e-06 PS=1.54e-06
mXI2<15>/MM_i_1_0_x4_2 VDD! NET3<0> ALU_OUT<15> VDD! PMOS_VTL L=5e-08 W=6.3e-07
+ AD=8.82e-14 AS=8.82e-14 PD=1.54e-06 PS=1.54e-06
mXI2<15>/MM_i_1_0_x4_3 VDD! NET3<0> ALU_OUT<15> VDD! PMOS_VTL L=5e-08 W=6.3e-07
+ AD=6.615e-14 AS=8.82e-14 PD=1.47e-06 PS=1.54e-06
mXI1<15>/MM_i_0 NET3<0> ALU_PRE<15> VSS! VSS! NMOS_VTL L=5e-08 W=4.15e-07
+ AD=4.3575e-14 AS=4.3575e-14 PD=1.04e-06 PS=1.04e-06
mXI1<15>/MM_i_1 NET3<0> ALU_PRE<15> VDD! VDD! PMOS_VTL L=5e-08 W=6.3e-07
+ AD=6.615e-14 AS=6.615e-14 PD=1.47e-06 PS=1.47e-06
mXI0<15>/MM_i_10 VSS! CTRL_2_BUF<15> XI0<15>/X1 VSS! NMOS_VTL L=5e-08 W=2.1e-07
+ AD=2.94e-14 AS=2.205e-14 PD=7e-07 PS=6.3e-07
mXI0<15>/MM_i_4 XI0<15>/NET_1 LOGIC_OUT<15> VSS! VSS! NMOS_VTL L=5e-08 W=2.1e-07
+ AD=2.94e-14 AS=2.94e-14 PD=7e-07 PS=7e-07
mXI0<15>/MM_i_5 XI0<15>/Z_NEG XI0<15>/X1 XI0<15>/NET_1 VSS! NMOS_VTL L=5e-08
+ W=2.1e-07 AD=2.94e-14 AS=2.94e-14 PD=7e-07 PS=7e-07
mXI0<15>/MM_i_2 XI0<15>/Z_NEG CTRL_2_BUF<15> XI0<15>/NET_0 VSS! NMOS_VTL L=5e-08
+ W=2.1e-07 AD=2.94e-14 AS=2.94e-14 PD=7e-07 PS=7e-07
mXI0<15>/MM_i_3 XI0<15>/NET_0 ARITHMETIC_OUT<15> VSS! VSS! NMOS_VTL L=5e-08
+ W=2.1e-07 AD=2.94e-14 AS=4.375e-14 PD=7e-07 PS=1.11e-06
mXI0<15>/MM_i_0 ALU_PRE<15> XI0<15>/Z_NEG VSS! VSS! NMOS_VTL L=5e-08 W=4.15e-07
+ AD=4.3575e-14 AS=4.375e-14 PD=1.04e-06 PS=1.11e-06
mXI0<15>/MM_i_11 VDD! CTRL_2_BUF<15> XI0<15>/X1 VDD! PMOS_VTL L=5e-08 W=3.15e-07
+ AD=4.41e-14 AS=3.3075e-14 PD=9.1e-07 PS=8.4e-07
mXI0<15>/MM_i_8 VDD! LOGIC_OUT<15> XI0<15>/NET_2 VDD! PMOS_VTL L=5e-08
+ W=3.15e-07 AD=4.41e-14 AS=4.41e-14 PD=9.1e-07 PS=9.1e-07
mXI0<15>/MM_i_6 XI0<15>/NET_2 CTRL_2_BUF<15> XI0<15>/Z_NEG VDD! PMOS_VTL L=5e-08
+ W=3.15e-07 AD=4.41e-14 AS=4.41e-14 PD=9.1e-07 PS=9.1e-07
mXI0<15>/MM_i_9 XI0<15>/NET_3 XI0<15>/X1 XI0<15>/Z_NEG VDD! PMOS_VTL L=5e-08
+ W=3.15e-07 AD=4.41e-14 AS=4.41e-14 PD=9.1e-07 PS=9.1e-07
mXI0<15>/MM_i_7 VDD! ARITHMETIC_OUT<15> XI0<15>/NET_3 VDD! PMOS_VTL L=5e-08
+ W=3.15e-07 AD=6.615e-14 AS=4.41e-14 PD=1.54e-06 PS=9.1e-07
mXI0<15>/MM_i_1 ALU_PRE<15> XI0<15>/Z_NEG VDD! VDD! PMOS_VTL L=5e-08 W=6.3e-07
+ AD=6.615e-14 AS=6.615e-14 PD=1.47e-06 PS=1.54e-06
mXI24/MM_i_2 VSS! CTRL<2> XI24/Z_NEG VSS! NMOS_VTL L=5e-08 W=2.1e-07
+ AD=4.375e-14 AS=2.205e-14 PD=1.11e-06 PS=6.3e-07
mXI24/MM_i_0 CTRL_2_BUF<15> XI24/Z_NEG VSS! VSS! NMOS_VTL L=5e-08 W=4.15e-07
+ AD=4.3575e-14 AS=4.375e-14 PD=1.04e-06 PS=1.11e-06
mXI24/MM_i_3 VDD! CTRL<2> XI24/Z_NEG VDD! PMOS_VTL L=5e-08 W=3.15e-07
+ AD=6.615e-14 AS=3.3075e-14 PD=1.54e-06 PS=8.4e-07
mXI24/MM_i_1 CTRL_2_BUF<15> XI24/Z_NEG VDD! VDD! PMOS_VTL L=5e-08 W=6.3e-07
+ AD=6.615e-14 AS=6.615e-14 PD=1.47e-06 PS=1.54e-06
mXI2<14>/MM_i_0_0_x4_0 VSS! NET3<1> ALU_OUT<14> VSS! NMOS_VTL L=5e-08 W=4.15e-07
+ AD=4.3575e-14 AS=5.81e-14 PD=1.04e-06 PS=1.11e-06
mXI2<14>/MM_i_0_0_x4_1 VSS! NET3<1> ALU_OUT<14> VSS! NMOS_VTL L=5e-08 W=4.15e-07
+ AD=5.81e-14 AS=5.81e-14 PD=1.11e-06 PS=1.11e-06
mXI2<14>/MM_i_0_0_x4_2 VSS! NET3<1> ALU_OUT<14> VSS! NMOS_VTL L=5e-08 W=4.15e-07
+ AD=5.81e-14 AS=5.81e-14 PD=1.11e-06 PS=1.11e-06
mXI2<14>/MM_i_0_0_x4_3 VSS! NET3<1> ALU_OUT<14> VSS! NMOS_VTL L=5e-08 W=4.15e-07
+ AD=4.3575e-14 AS=5.81e-14 PD=1.04e-06 PS=1.11e-06
mXI2<14>/MM_i_1_0_x4_0 VDD! NET3<1> ALU_OUT<14> VDD! PMOS_VTL L=5e-08 W=6.3e-07
+ AD=6.615e-14 AS=8.82e-14 PD=1.47e-06 PS=1.54e-06
mXI2<14>/MM_i_1_0_x4_1 VDD! NET3<1> ALU_OUT<14> VDD! PMOS_VTL L=5e-08 W=6.3e-07
+ AD=8.82e-14 AS=8.82e-14 PD=1.54e-06 PS=1.54e-06
mXI2<14>/MM_i_1_0_x4_2 VDD! NET3<1> ALU_OUT<14> VDD! PMOS_VTL L=5e-08 W=6.3e-07
+ AD=8.82e-14 AS=8.82e-14 PD=1.54e-06 PS=1.54e-06
mXI2<14>/MM_i_1_0_x4_3 VDD! NET3<1> ALU_OUT<14> VDD! PMOS_VTL L=5e-08 W=6.3e-07
+ AD=6.615e-14 AS=8.82e-14 PD=1.47e-06 PS=1.54e-06
mXI1<14>/MM_i_0 NET3<1> ALU_PRE<14> VSS! VSS! NMOS_VTL L=5e-08 W=4.15e-07
+ AD=4.3575e-14 AS=4.3575e-14 PD=1.04e-06 PS=1.04e-06
mXI1<14>/MM_i_1 NET3<1> ALU_PRE<14> VDD! VDD! PMOS_VTL L=5e-08 W=6.3e-07
+ AD=6.615e-14 AS=6.615e-14 PD=1.47e-06 PS=1.47e-06
mXI0<14>/MM_i_10 VSS! CTRL_2_BUF<14> XI0<14>/X1 VSS! NMOS_VTL L=5e-08 W=2.1e-07
+ AD=2.94e-14 AS=2.205e-14 PD=7e-07 PS=6.3e-07
mXI0<14>/MM_i_4 XI0<14>/NET_1 LOGIC_OUT<14> VSS! VSS! NMOS_VTL L=5e-08 W=2.1e-07
+ AD=2.94e-14 AS=2.94e-14 PD=7e-07 PS=7e-07
mXI0<14>/MM_i_5 XI0<14>/Z_NEG XI0<14>/X1 XI0<14>/NET_1 VSS! NMOS_VTL L=5e-08
+ W=2.1e-07 AD=2.94e-14 AS=2.94e-14 PD=7e-07 PS=7e-07
mXI0<14>/MM_i_2 XI0<14>/Z_NEG CTRL_2_BUF<14> XI0<14>/NET_0 VSS! NMOS_VTL L=5e-08
+ W=2.1e-07 AD=2.94e-14 AS=2.94e-14 PD=7e-07 PS=7e-07
mXI0<14>/MM_i_3 XI0<14>/NET_0 ARITHMETIC_OUT<14> VSS! VSS! NMOS_VTL L=5e-08
+ W=2.1e-07 AD=2.94e-14 AS=4.375e-14 PD=7e-07 PS=1.11e-06
mXI0<14>/MM_i_0 ALU_PRE<14> XI0<14>/Z_NEG VSS! VSS! NMOS_VTL L=5e-08 W=4.15e-07
+ AD=4.3575e-14 AS=4.375e-14 PD=1.04e-06 PS=1.11e-06
mXI0<14>/MM_i_11 VDD! CTRL_2_BUF<14> XI0<14>/X1 VDD! PMOS_VTL L=5e-08 W=3.15e-07
+ AD=4.41e-14 AS=3.3075e-14 PD=9.1e-07 PS=8.4e-07
mXI0<14>/MM_i_8 VDD! LOGIC_OUT<14> XI0<14>/NET_2 VDD! PMOS_VTL L=5e-08
+ W=3.15e-07 AD=4.41e-14 AS=4.41e-14 PD=9.1e-07 PS=9.1e-07
mXI0<14>/MM_i_6 XI0<14>/NET_2 CTRL_2_BUF<14> XI0<14>/Z_NEG VDD! PMOS_VTL L=5e-08
+ W=3.15e-07 AD=4.41e-14 AS=4.41e-14 PD=9.1e-07 PS=9.1e-07
mXI0<14>/MM_i_9 XI0<14>/NET_3 XI0<14>/X1 XI0<14>/Z_NEG VDD! PMOS_VTL L=5e-08
+ W=3.15e-07 AD=4.41e-14 AS=4.41e-14 PD=9.1e-07 PS=9.1e-07
mXI0<14>/MM_i_7 VDD! ARITHMETIC_OUT<14> XI0<14>/NET_3 VDD! PMOS_VTL L=5e-08
+ W=3.15e-07 AD=6.615e-14 AS=4.41e-14 PD=1.54e-06 PS=9.1e-07
mXI0<14>/MM_i_1 ALU_PRE<14> XI0<14>/Z_NEG VDD! VDD! PMOS_VTL L=5e-08 W=6.3e-07
+ AD=6.615e-14 AS=6.615e-14 PD=1.47e-06 PS=1.54e-06
mXI25/MM_i_2 VSS! CTRL_2_BUF<15> XI25/Z_NEG VSS! NMOS_VTL L=5e-08 W=2.1e-07
+ AD=4.375e-14 AS=2.205e-14 PD=1.11e-06 PS=6.3e-07
mXI25/MM_i_0 CTRL_2_BUF<14> XI25/Z_NEG VSS! VSS! NMOS_VTL L=5e-08 W=4.15e-07
+ AD=4.3575e-14 AS=4.375e-14 PD=1.04e-06 PS=1.11e-06
mXI25/MM_i_3 VDD! CTRL_2_BUF<15> XI25/Z_NEG VDD! PMOS_VTL L=5e-08 W=3.15e-07
+ AD=6.615e-14 AS=3.3075e-14 PD=1.54e-06 PS=8.4e-07
mXI25/MM_i_1 CTRL_2_BUF<14> XI25/Z_NEG VDD! VDD! PMOS_VTL L=5e-08 W=6.3e-07
+ AD=6.615e-14 AS=6.615e-14 PD=1.47e-06 PS=1.54e-06
mXI2<1>/MM_i_0_0_x4_0 VSS! NET3<14> ALU_OUT<1> VSS! NMOS_VTL L=5e-08 W=4.15e-07
+ AD=4.3575e-14 AS=5.81e-14 PD=1.04e-06 PS=1.11e-06
mXI2<1>/MM_i_0_0_x4_1 VSS! NET3<14> ALU_OUT<1> VSS! NMOS_VTL L=5e-08 W=4.15e-07
+ AD=5.81e-14 AS=5.81e-14 PD=1.11e-06 PS=1.11e-06
mXI2<1>/MM_i_0_0_x4_2 VSS! NET3<14> ALU_OUT<1> VSS! NMOS_VTL L=5e-08 W=4.15e-07
+ AD=5.81e-14 AS=5.81e-14 PD=1.11e-06 PS=1.11e-06
mXI2<1>/MM_i_0_0_x4_3 VSS! NET3<14> ALU_OUT<1> VSS! NMOS_VTL L=5e-08 W=4.15e-07
+ AD=4.3575e-14 AS=5.81e-14 PD=1.04e-06 PS=1.11e-06
mXI2<1>/MM_i_1_0_x4_0 VDD! NET3<14> ALU_OUT<1> VDD! PMOS_VTL L=5e-08 W=6.3e-07
+ AD=6.615e-14 AS=8.82e-14 PD=1.47e-06 PS=1.54e-06
mXI2<1>/MM_i_1_0_x4_1 VDD! NET3<14> ALU_OUT<1> VDD! PMOS_VTL L=5e-08 W=6.3e-07
+ AD=8.82e-14 AS=8.82e-14 PD=1.54e-06 PS=1.54e-06
mXI2<1>/MM_i_1_0_x4_2 VDD! NET3<14> ALU_OUT<1> VDD! PMOS_VTL L=5e-08 W=6.3e-07
+ AD=8.82e-14 AS=8.82e-14 PD=1.54e-06 PS=1.54e-06
mXI2<1>/MM_i_1_0_x4_3 VDD! NET3<14> ALU_OUT<1> VDD! PMOS_VTL L=5e-08 W=6.3e-07
+ AD=6.615e-14 AS=8.82e-14 PD=1.47e-06 PS=1.54e-06
mXI1<1>/MM_i_0 NET3<14> ALU_PRE<1> VSS! VSS! NMOS_VTL L=5e-08 W=4.15e-07
+ AD=4.3575e-14 AS=4.3575e-14 PD=1.04e-06 PS=1.04e-06
mXI1<1>/MM_i_1 NET3<14> ALU_PRE<1> VDD! VDD! PMOS_VTL L=5e-08 W=6.3e-07
+ AD=6.615e-14 AS=6.615e-14 PD=1.47e-06 PS=1.47e-06
mXI0<1>/MM_i_10 VSS! CTRL_2_BUF<1> XI0<1>/X1 VSS! NMOS_VTL L=5e-08 W=2.1e-07
+ AD=2.94e-14 AS=2.205e-14 PD=7e-07 PS=6.3e-07
mXI0<1>/MM_i_4 XI0<1>/NET_1 LOGIC_OUT<1> VSS! VSS! NMOS_VTL L=5e-08 W=2.1e-07
+ AD=2.94e-14 AS=2.94e-14 PD=7e-07 PS=7e-07
mXI0<1>/MM_i_5 XI0<1>/Z_NEG XI0<1>/X1 XI0<1>/NET_1 VSS! NMOS_VTL L=5e-08
+ W=2.1e-07 AD=2.94e-14 AS=2.94e-14 PD=7e-07 PS=7e-07
mXI0<1>/MM_i_2 XI0<1>/Z_NEG CTRL_2_BUF<1> XI0<1>/NET_0 VSS! NMOS_VTL L=5e-08
+ W=2.1e-07 AD=2.94e-14 AS=2.94e-14 PD=7e-07 PS=7e-07
mXI0<1>/MM_i_3 XI0<1>/NET_0 ARITHMETIC_OUT<1> VSS! VSS! NMOS_VTL L=5e-08
+ W=2.1e-07 AD=2.94e-14 AS=4.375e-14 PD=7e-07 PS=1.11e-06
mXI0<1>/MM_i_0 ALU_PRE<1> XI0<1>/Z_NEG VSS! VSS! NMOS_VTL L=5e-08 W=4.15e-07
+ AD=4.3575e-14 AS=4.375e-14 PD=1.04e-06 PS=1.11e-06
mXI0<1>/MM_i_11 VDD! CTRL_2_BUF<1> XI0<1>/X1 VDD! PMOS_VTL L=5e-08 W=3.15e-07
+ AD=4.41e-14 AS=3.3075e-14 PD=9.1e-07 PS=8.4e-07
mXI0<1>/MM_i_8 VDD! LOGIC_OUT<1> XI0<1>/NET_2 VDD! PMOS_VTL L=5e-08 W=3.15e-07
+ AD=4.41e-14 AS=4.41e-14 PD=9.1e-07 PS=9.1e-07
mXI0<1>/MM_i_6 XI0<1>/NET_2 CTRL_2_BUF<1> XI0<1>/Z_NEG VDD! PMOS_VTL L=5e-08
+ W=3.15e-07 AD=4.41e-14 AS=4.41e-14 PD=9.1e-07 PS=9.1e-07
mXI0<1>/MM_i_9 XI0<1>/NET_3 XI0<1>/X1 XI0<1>/Z_NEG VDD! PMOS_VTL L=5e-08
+ W=3.15e-07 AD=4.41e-14 AS=4.41e-14 PD=9.1e-07 PS=9.1e-07
mXI0<1>/MM_i_7 VDD! ARITHMETIC_OUT<1> XI0<1>/NET_3 VDD! PMOS_VTL L=5e-08
+ W=3.15e-07 AD=6.615e-14 AS=4.41e-14 PD=1.54e-06 PS=9.1e-07
mXI0<1>/MM_i_1 ALU_PRE<1> XI0<1>/Z_NEG VDD! VDD! PMOS_VTL L=5e-08 W=6.3e-07
+ AD=6.615e-14 AS=6.615e-14 PD=1.47e-06 PS=1.54e-06
mXI4/MM_i_2 VSS! CTRL_2_BUF<2> XI4/Z_NEG VSS! NMOS_VTL L=5e-08 W=2.1e-07
+ AD=4.375e-14 AS=2.205e-14 PD=1.11e-06 PS=6.3e-07
mXI4/MM_i_0 CTRL_2_BUF<1> XI4/Z_NEG VSS! VSS! NMOS_VTL L=5e-08 W=4.15e-07
+ AD=4.3575e-14 AS=4.375e-14 PD=1.04e-06 PS=1.11e-06
mXI4/MM_i_3 VDD! CTRL_2_BUF<2> XI4/Z_NEG VDD! PMOS_VTL L=5e-08 W=3.15e-07
+ AD=6.615e-14 AS=3.3075e-14 PD=1.54e-06 PS=8.4e-07
mXI4/MM_i_1 CTRL_2_BUF<1> XI4/Z_NEG VDD! VDD! PMOS_VTL L=5e-08 W=6.3e-07
+ AD=6.615e-14 AS=6.615e-14 PD=1.47e-06 PS=1.54e-06
mXI2<0>/MM_i_0_0_x4_0 VSS! NET3<15> ALU_OUT<0> VSS! NMOS_VTL L=5e-08 W=4.15e-07
+ AD=4.3575e-14 AS=5.81e-14 PD=1.04e-06 PS=1.11e-06
mXI2<0>/MM_i_0_0_x4_1 VSS! NET3<15> ALU_OUT<0> VSS! NMOS_VTL L=5e-08 W=4.15e-07
+ AD=5.81e-14 AS=5.81e-14 PD=1.11e-06 PS=1.11e-06
mXI2<0>/MM_i_0_0_x4_2 VSS! NET3<15> ALU_OUT<0> VSS! NMOS_VTL L=5e-08 W=4.15e-07
+ AD=5.81e-14 AS=5.81e-14 PD=1.11e-06 PS=1.11e-06
mXI2<0>/MM_i_0_0_x4_3 VSS! NET3<15> ALU_OUT<0> VSS! NMOS_VTL L=5e-08 W=4.15e-07
+ AD=4.3575e-14 AS=5.81e-14 PD=1.04e-06 PS=1.11e-06
mXI2<0>/MM_i_1_0_x4_0 VDD! NET3<15> ALU_OUT<0> VDD! PMOS_VTL L=5e-08 W=6.3e-07
+ AD=6.615e-14 AS=8.82e-14 PD=1.47e-06 PS=1.54e-06
mXI2<0>/MM_i_1_0_x4_1 VDD! NET3<15> ALU_OUT<0> VDD! PMOS_VTL L=5e-08 W=6.3e-07
+ AD=8.82e-14 AS=8.82e-14 PD=1.54e-06 PS=1.54e-06
mXI2<0>/MM_i_1_0_x4_2 VDD! NET3<15> ALU_OUT<0> VDD! PMOS_VTL L=5e-08 W=6.3e-07
+ AD=8.82e-14 AS=8.82e-14 PD=1.54e-06 PS=1.54e-06
mXI2<0>/MM_i_1_0_x4_3 VDD! NET3<15> ALU_OUT<0> VDD! PMOS_VTL L=5e-08 W=6.3e-07
+ AD=6.615e-14 AS=8.82e-14 PD=1.47e-06 PS=1.54e-06
mXI1<0>/MM_i_0 NET3<15> ALU_PRE<0> VSS! VSS! NMOS_VTL L=5e-08 W=4.15e-07
+ AD=4.3575e-14 AS=4.3575e-14 PD=1.04e-06 PS=1.04e-06
mXI1<0>/MM_i_1 NET3<15> ALU_PRE<0> VDD! VDD! PMOS_VTL L=5e-08 W=6.3e-07
+ AD=6.615e-14 AS=6.615e-14 PD=1.47e-06 PS=1.47e-06
mXI0<0>/MM_i_10 VSS! CTRL_2_BUF<0> XI0<0>/X1 VSS! NMOS_VTL L=5e-08 W=2.1e-07
+ AD=2.94e-14 AS=2.205e-14 PD=7e-07 PS=6.3e-07
mXI0<0>/MM_i_4 XI0<0>/NET_1 LOGIC_OUT<0> VSS! VSS! NMOS_VTL L=5e-08 W=2.1e-07
+ AD=2.94e-14 AS=2.94e-14 PD=7e-07 PS=7e-07
mXI0<0>/MM_i_5 XI0<0>/Z_NEG XI0<0>/X1 XI0<0>/NET_1 VSS! NMOS_VTL L=5e-08
+ W=2.1e-07 AD=2.94e-14 AS=2.94e-14 PD=7e-07 PS=7e-07
mXI0<0>/MM_i_2 XI0<0>/Z_NEG CTRL_2_BUF<0> XI0<0>/NET_0 VSS! NMOS_VTL L=5e-08
+ W=2.1e-07 AD=2.94e-14 AS=2.94e-14 PD=7e-07 PS=7e-07
mXI0<0>/MM_i_3 XI0<0>/NET_0 ARITHMETIC_OUT<0> VSS! VSS! NMOS_VTL L=5e-08
+ W=2.1e-07 AD=2.94e-14 AS=4.375e-14 PD=7e-07 PS=1.11e-06
mXI0<0>/MM_i_0 ALU_PRE<0> XI0<0>/Z_NEG VSS! VSS! NMOS_VTL L=5e-08 W=4.15e-07
+ AD=4.3575e-14 AS=4.375e-14 PD=1.04e-06 PS=1.11e-06
mXI0<0>/MM_i_11 VDD! CTRL_2_BUF<0> XI0<0>/X1 VDD! PMOS_VTL L=5e-08 W=3.15e-07
+ AD=4.41e-14 AS=3.3075e-14 PD=9.1e-07 PS=8.4e-07
mXI0<0>/MM_i_8 VDD! LOGIC_OUT<0> XI0<0>/NET_2 VDD! PMOS_VTL L=5e-08 W=3.15e-07
+ AD=4.41e-14 AS=4.41e-14 PD=9.1e-07 PS=9.1e-07
mXI0<0>/MM_i_6 XI0<0>/NET_2 CTRL_2_BUF<0> XI0<0>/Z_NEG VDD! PMOS_VTL L=5e-08
+ W=3.15e-07 AD=4.41e-14 AS=4.41e-14 PD=9.1e-07 PS=9.1e-07
mXI0<0>/MM_i_9 XI0<0>/NET_3 XI0<0>/X1 XI0<0>/Z_NEG VDD! PMOS_VTL L=5e-08
+ W=3.15e-07 AD=4.41e-14 AS=4.41e-14 PD=9.1e-07 PS=9.1e-07
mXI0<0>/MM_i_7 VDD! ARITHMETIC_OUT<0> XI0<0>/NET_3 VDD! PMOS_VTL L=5e-08
+ W=3.15e-07 AD=6.615e-14 AS=4.41e-14 PD=1.54e-06 PS=9.1e-07
mXI0<0>/MM_i_1 ALU_PRE<0> XI0<0>/Z_NEG VDD! VDD! PMOS_VTL L=5e-08 W=6.3e-07
+ AD=6.615e-14 AS=6.615e-14 PD=1.47e-06 PS=1.54e-06
mXI3/MM_i_2 VSS! CTRL_2_BUF<1> XI3/Z_NEG VSS! NMOS_VTL L=5e-08 W=2.1e-07
+ AD=4.375e-14 AS=2.205e-14 PD=1.11e-06 PS=6.3e-07
mXI3/MM_i_0 CTRL_2_BUF<0> XI3/Z_NEG VSS! VSS! NMOS_VTL L=5e-08 W=4.15e-07
+ AD=4.3575e-14 AS=4.375e-14 PD=1.04e-06 PS=1.11e-06
mXI3/MM_i_3 VDD! CTRL_2_BUF<1> XI3/Z_NEG VDD! PMOS_VTL L=5e-08 W=3.15e-07
+ AD=6.615e-14 AS=3.3075e-14 PD=1.54e-06 PS=8.4e-07
mXI3/MM_i_1 CTRL_2_BUF<0> XI3/Z_NEG VDD! VDD! PMOS_VTL L=5e-08 W=6.3e-07
+ AD=6.615e-14 AS=6.615e-14 PD=1.47e-06 PS=1.54e-06
mXI2<3>/MM_i_0_0_x4_0 VSS! NET3<12> ALU_OUT<3> VSS! NMOS_VTL L=5e-08 W=4.15e-07
+ AD=4.3575e-14 AS=5.81e-14 PD=1.04e-06 PS=1.11e-06
mXI2<3>/MM_i_0_0_x4_1 VSS! NET3<12> ALU_OUT<3> VSS! NMOS_VTL L=5e-08 W=4.15e-07
+ AD=5.81e-14 AS=5.81e-14 PD=1.11e-06 PS=1.11e-06
mXI2<3>/MM_i_0_0_x4_2 VSS! NET3<12> ALU_OUT<3> VSS! NMOS_VTL L=5e-08 W=4.15e-07
+ AD=5.81e-14 AS=5.81e-14 PD=1.11e-06 PS=1.11e-06
mXI2<3>/MM_i_0_0_x4_3 VSS! NET3<12> ALU_OUT<3> VSS! NMOS_VTL L=5e-08 W=4.15e-07
+ AD=4.3575e-14 AS=5.81e-14 PD=1.04e-06 PS=1.11e-06
mXI2<3>/MM_i_1_0_x4_0 VDD! NET3<12> ALU_OUT<3> VDD! PMOS_VTL L=5e-08 W=6.3e-07
+ AD=6.615e-14 AS=8.82e-14 PD=1.47e-06 PS=1.54e-06
mXI2<3>/MM_i_1_0_x4_1 VDD! NET3<12> ALU_OUT<3> VDD! PMOS_VTL L=5e-08 W=6.3e-07
+ AD=8.82e-14 AS=8.82e-14 PD=1.54e-06 PS=1.54e-06
mXI2<3>/MM_i_1_0_x4_2 VDD! NET3<12> ALU_OUT<3> VDD! PMOS_VTL L=5e-08 W=6.3e-07
+ AD=8.82e-14 AS=8.82e-14 PD=1.54e-06 PS=1.54e-06
mXI2<3>/MM_i_1_0_x4_3 VDD! NET3<12> ALU_OUT<3> VDD! PMOS_VTL L=5e-08 W=6.3e-07
+ AD=6.615e-14 AS=8.82e-14 PD=1.47e-06 PS=1.54e-06
mXI1<3>/MM_i_0 NET3<12> ALU_PRE<3> VSS! VSS! NMOS_VTL L=5e-08 W=4.15e-07
+ AD=4.3575e-14 AS=4.3575e-14 PD=1.04e-06 PS=1.04e-06
mXI1<3>/MM_i_1 NET3<12> ALU_PRE<3> VDD! VDD! PMOS_VTL L=5e-08 W=6.3e-07
+ AD=6.615e-14 AS=6.615e-14 PD=1.47e-06 PS=1.47e-06
mXI0<3>/MM_i_10 VSS! CTRL_2_BUF<3> XI0<3>/X1 VSS! NMOS_VTL L=5e-08 W=2.1e-07
+ AD=2.94e-14 AS=2.205e-14 PD=7e-07 PS=6.3e-07
mXI0<3>/MM_i_4 XI0<3>/NET_1 LOGIC_OUT<3> VSS! VSS! NMOS_VTL L=5e-08 W=2.1e-07
+ AD=2.94e-14 AS=2.94e-14 PD=7e-07 PS=7e-07
mXI0<3>/MM_i_5 XI0<3>/Z_NEG XI0<3>/X1 XI0<3>/NET_1 VSS! NMOS_VTL L=5e-08
+ W=2.1e-07 AD=2.94e-14 AS=2.94e-14 PD=7e-07 PS=7e-07
mXI0<3>/MM_i_2 XI0<3>/Z_NEG CTRL_2_BUF<3> XI0<3>/NET_0 VSS! NMOS_VTL L=5e-08
+ W=2.1e-07 AD=2.94e-14 AS=2.94e-14 PD=7e-07 PS=7e-07
mXI0<3>/MM_i_3 XI0<3>/NET_0 ARITHMETIC_OUT<3> VSS! VSS! NMOS_VTL L=5e-08
+ W=2.1e-07 AD=2.94e-14 AS=4.375e-14 PD=7e-07 PS=1.11e-06
mXI0<3>/MM_i_0 ALU_PRE<3> XI0<3>/Z_NEG VSS! VSS! NMOS_VTL L=5e-08 W=4.15e-07
+ AD=4.3575e-14 AS=4.375e-14 PD=1.04e-06 PS=1.11e-06
mXI0<3>/MM_i_11 VDD! CTRL_2_BUF<3> XI0<3>/X1 VDD! PMOS_VTL L=5e-08 W=3.15e-07
+ AD=4.41e-14 AS=3.3075e-14 PD=9.1e-07 PS=8.4e-07
mXI0<3>/MM_i_8 VDD! LOGIC_OUT<3> XI0<3>/NET_2 VDD! PMOS_VTL L=5e-08 W=3.15e-07
+ AD=4.41e-14 AS=4.41e-14 PD=9.1e-07 PS=9.1e-07
mXI0<3>/MM_i_6 XI0<3>/NET_2 CTRL_2_BUF<3> XI0<3>/Z_NEG VDD! PMOS_VTL L=5e-08
+ W=3.15e-07 AD=4.41e-14 AS=4.41e-14 PD=9.1e-07 PS=9.1e-07
mXI0<3>/MM_i_9 XI0<3>/NET_3 XI0<3>/X1 XI0<3>/Z_NEG VDD! PMOS_VTL L=5e-08
+ W=3.15e-07 AD=4.41e-14 AS=4.41e-14 PD=9.1e-07 PS=9.1e-07
mXI0<3>/MM_i_7 VDD! ARITHMETIC_OUT<3> XI0<3>/NET_3 VDD! PMOS_VTL L=5e-08
+ W=3.15e-07 AD=6.615e-14 AS=4.41e-14 PD=1.54e-06 PS=9.1e-07
mXI0<3>/MM_i_1 ALU_PRE<3> XI0<3>/Z_NEG VDD! VDD! PMOS_VTL L=5e-08 W=6.3e-07
+ AD=6.615e-14 AS=6.615e-14 PD=1.47e-06 PS=1.54e-06
mXI12/MM_i_2 VSS! CTRL_2_BUF<4> XI12/Z_NEG VSS! NMOS_VTL L=5e-08 W=2.1e-07
+ AD=4.375e-14 AS=2.205e-14 PD=1.11e-06 PS=6.3e-07
mXI12/MM_i_0 CTRL_2_BUF<3> XI12/Z_NEG VSS! VSS! NMOS_VTL L=5e-08 W=4.15e-07
+ AD=4.3575e-14 AS=4.375e-14 PD=1.04e-06 PS=1.11e-06
mXI12/MM_i_3 VDD! CTRL_2_BUF<4> XI12/Z_NEG VDD! PMOS_VTL L=5e-08 W=3.15e-07
+ AD=6.615e-14 AS=3.3075e-14 PD=1.54e-06 PS=8.4e-07
mXI12/MM_i_1 CTRL_2_BUF<3> XI12/Z_NEG VDD! VDD! PMOS_VTL L=5e-08 W=6.3e-07
+ AD=6.615e-14 AS=6.615e-14 PD=1.47e-06 PS=1.54e-06
mXI2<2>/MM_i_0_0_x4_0 VSS! NET3<13> ALU_OUT<2> VSS! NMOS_VTL L=5e-08 W=4.15e-07
+ AD=4.3575e-14 AS=5.81e-14 PD=1.04e-06 PS=1.11e-06
mXI2<2>/MM_i_0_0_x4_1 VSS! NET3<13> ALU_OUT<2> VSS! NMOS_VTL L=5e-08 W=4.15e-07
+ AD=5.81e-14 AS=5.81e-14 PD=1.11e-06 PS=1.11e-06
mXI2<2>/MM_i_0_0_x4_2 VSS! NET3<13> ALU_OUT<2> VSS! NMOS_VTL L=5e-08 W=4.15e-07
+ AD=5.81e-14 AS=5.81e-14 PD=1.11e-06 PS=1.11e-06
mXI2<2>/MM_i_0_0_x4_3 VSS! NET3<13> ALU_OUT<2> VSS! NMOS_VTL L=5e-08 W=4.15e-07
+ AD=4.3575e-14 AS=5.81e-14 PD=1.04e-06 PS=1.11e-06
mXI2<2>/MM_i_1_0_x4_0 VDD! NET3<13> ALU_OUT<2> VDD! PMOS_VTL L=5e-08 W=6.3e-07
+ AD=6.615e-14 AS=8.82e-14 PD=1.47e-06 PS=1.54e-06
mXI2<2>/MM_i_1_0_x4_1 VDD! NET3<13> ALU_OUT<2> VDD! PMOS_VTL L=5e-08 W=6.3e-07
+ AD=8.82e-14 AS=8.82e-14 PD=1.54e-06 PS=1.54e-06
mXI2<2>/MM_i_1_0_x4_2 VDD! NET3<13> ALU_OUT<2> VDD! PMOS_VTL L=5e-08 W=6.3e-07
+ AD=8.82e-14 AS=8.82e-14 PD=1.54e-06 PS=1.54e-06
mXI2<2>/MM_i_1_0_x4_3 VDD! NET3<13> ALU_OUT<2> VDD! PMOS_VTL L=5e-08 W=6.3e-07
+ AD=6.615e-14 AS=8.82e-14 PD=1.47e-06 PS=1.54e-06
mXI1<2>/MM_i_0 NET3<13> ALU_PRE<2> VSS! VSS! NMOS_VTL L=5e-08 W=4.15e-07
+ AD=4.3575e-14 AS=4.3575e-14 PD=1.04e-06 PS=1.04e-06
mXI1<2>/MM_i_1 NET3<13> ALU_PRE<2> VDD! VDD! PMOS_VTL L=5e-08 W=6.3e-07
+ AD=6.615e-14 AS=6.615e-14 PD=1.47e-06 PS=1.47e-06
mXI0<2>/MM_i_10 VSS! CTRL_2_BUF<2> XI0<2>/X1 VSS! NMOS_VTL L=5e-08 W=2.1e-07
+ AD=2.94e-14 AS=2.205e-14 PD=7e-07 PS=6.3e-07
mXI0<2>/MM_i_4 XI0<2>/NET_1 LOGIC_OUT<2> VSS! VSS! NMOS_VTL L=5e-08 W=2.1e-07
+ AD=2.94e-14 AS=2.94e-14 PD=7e-07 PS=7e-07
mXI0<2>/MM_i_5 XI0<2>/Z_NEG XI0<2>/X1 XI0<2>/NET_1 VSS! NMOS_VTL L=5e-08
+ W=2.1e-07 AD=2.94e-14 AS=2.94e-14 PD=7e-07 PS=7e-07
mXI0<2>/MM_i_2 XI0<2>/Z_NEG CTRL_2_BUF<2> XI0<2>/NET_0 VSS! NMOS_VTL L=5e-08
+ W=2.1e-07 AD=2.94e-14 AS=2.94e-14 PD=7e-07 PS=7e-07
mXI0<2>/MM_i_3 XI0<2>/NET_0 ARITHMETIC_OUT<2> VSS! VSS! NMOS_VTL L=5e-08
+ W=2.1e-07 AD=2.94e-14 AS=4.375e-14 PD=7e-07 PS=1.11e-06
mXI0<2>/MM_i_0 ALU_PRE<2> XI0<2>/Z_NEG VSS! VSS! NMOS_VTL L=5e-08 W=4.15e-07
+ AD=4.3575e-14 AS=4.375e-14 PD=1.04e-06 PS=1.11e-06
mXI0<2>/MM_i_11 VDD! CTRL_2_BUF<2> XI0<2>/X1 VDD! PMOS_VTL L=5e-08 W=3.15e-07
+ AD=4.41e-14 AS=3.3075e-14 PD=9.1e-07 PS=8.4e-07
mXI0<2>/MM_i_8 VDD! LOGIC_OUT<2> XI0<2>/NET_2 VDD! PMOS_VTL L=5e-08 W=3.15e-07
+ AD=4.41e-14 AS=4.41e-14 PD=9.1e-07 PS=9.1e-07
mXI0<2>/MM_i_6 XI0<2>/NET_2 CTRL_2_BUF<2> XI0<2>/Z_NEG VDD! PMOS_VTL L=5e-08
+ W=3.15e-07 AD=4.41e-14 AS=4.41e-14 PD=9.1e-07 PS=9.1e-07
mXI0<2>/MM_i_9 XI0<2>/NET_3 XI0<2>/X1 XI0<2>/Z_NEG VDD! PMOS_VTL L=5e-08
+ W=3.15e-07 AD=4.41e-14 AS=4.41e-14 PD=9.1e-07 PS=9.1e-07
mXI0<2>/MM_i_7 VDD! ARITHMETIC_OUT<2> XI0<2>/NET_3 VDD! PMOS_VTL L=5e-08
+ W=3.15e-07 AD=6.615e-14 AS=4.41e-14 PD=1.54e-06 PS=9.1e-07
mXI0<2>/MM_i_1 ALU_PRE<2> XI0<2>/Z_NEG VDD! VDD! PMOS_VTL L=5e-08 W=6.3e-07
+ AD=6.615e-14 AS=6.615e-14 PD=1.47e-06 PS=1.54e-06
mXI11/MM_i_2 VSS! CTRL_2_BUF<3> XI11/Z_NEG VSS! NMOS_VTL L=5e-08 W=2.1e-07
+ AD=4.375e-14 AS=2.205e-14 PD=1.11e-06 PS=6.3e-07
mXI11/MM_i_0 CTRL_2_BUF<2> XI11/Z_NEG VSS! VSS! NMOS_VTL L=5e-08 W=4.15e-07
+ AD=4.3575e-14 AS=4.375e-14 PD=1.04e-06 PS=1.11e-06
mXI11/MM_i_3 VDD! CTRL_2_BUF<3> XI11/Z_NEG VDD! PMOS_VTL L=5e-08 W=3.15e-07
+ AD=6.615e-14 AS=3.3075e-14 PD=1.54e-06 PS=8.4e-07
mXI11/MM_i_1 CTRL_2_BUF<2> XI11/Z_NEG VDD! VDD! PMOS_VTL L=5e-08 W=6.3e-07
+ AD=6.615e-14 AS=6.615e-14 PD=1.47e-06 PS=1.54e-06
mXI2<5>/MM_i_0_0_x4_0 VSS! NET3<10> ALU_OUT<5> VSS! NMOS_VTL L=5e-08 W=4.15e-07
+ AD=4.3575e-14 AS=5.81e-14 PD=1.04e-06 PS=1.11e-06
mXI2<5>/MM_i_0_0_x4_1 VSS! NET3<10> ALU_OUT<5> VSS! NMOS_VTL L=5e-08 W=4.15e-07
+ AD=5.81e-14 AS=5.81e-14 PD=1.11e-06 PS=1.11e-06
mXI2<5>/MM_i_0_0_x4_2 VSS! NET3<10> ALU_OUT<5> VSS! NMOS_VTL L=5e-08 W=4.15e-07
+ AD=5.81e-14 AS=5.81e-14 PD=1.11e-06 PS=1.11e-06
mXI2<5>/MM_i_0_0_x4_3 VSS! NET3<10> ALU_OUT<5> VSS! NMOS_VTL L=5e-08 W=4.15e-07
+ AD=4.3575e-14 AS=5.81e-14 PD=1.04e-06 PS=1.11e-06
mXI2<5>/MM_i_1_0_x4_0 VDD! NET3<10> ALU_OUT<5> VDD! PMOS_VTL L=5e-08 W=6.3e-07
+ AD=6.615e-14 AS=8.82e-14 PD=1.47e-06 PS=1.54e-06
mXI2<5>/MM_i_1_0_x4_1 VDD! NET3<10> ALU_OUT<5> VDD! PMOS_VTL L=5e-08 W=6.3e-07
+ AD=8.82e-14 AS=8.82e-14 PD=1.54e-06 PS=1.54e-06
mXI2<5>/MM_i_1_0_x4_2 VDD! NET3<10> ALU_OUT<5> VDD! PMOS_VTL L=5e-08 W=6.3e-07
+ AD=8.82e-14 AS=8.82e-14 PD=1.54e-06 PS=1.54e-06
mXI2<5>/MM_i_1_0_x4_3 VDD! NET3<10> ALU_OUT<5> VDD! PMOS_VTL L=5e-08 W=6.3e-07
+ AD=6.615e-14 AS=8.82e-14 PD=1.47e-06 PS=1.54e-06
mXI1<5>/MM_i_0 NET3<10> ALU_PRE<5> VSS! VSS! NMOS_VTL L=5e-08 W=4.15e-07
+ AD=4.3575e-14 AS=4.3575e-14 PD=1.04e-06 PS=1.04e-06
mXI1<5>/MM_i_1 NET3<10> ALU_PRE<5> VDD! VDD! PMOS_VTL L=5e-08 W=6.3e-07
+ AD=6.615e-14 AS=6.615e-14 PD=1.47e-06 PS=1.47e-06
mXI0<5>/MM_i_10 VSS! CTRL_2_BUF<5> XI0<5>/X1 VSS! NMOS_VTL L=5e-08 W=2.1e-07
+ AD=2.94e-14 AS=2.205e-14 PD=7e-07 PS=6.3e-07
mXI0<5>/MM_i_4 XI0<5>/NET_1 LOGIC_OUT<5> VSS! VSS! NMOS_VTL L=5e-08 W=2.1e-07
+ AD=2.94e-14 AS=2.94e-14 PD=7e-07 PS=7e-07
mXI0<5>/MM_i_5 XI0<5>/Z_NEG XI0<5>/X1 XI0<5>/NET_1 VSS! NMOS_VTL L=5e-08
+ W=2.1e-07 AD=2.94e-14 AS=2.94e-14 PD=7e-07 PS=7e-07
mXI0<5>/MM_i_2 XI0<5>/Z_NEG CTRL_2_BUF<5> XI0<5>/NET_0 VSS! NMOS_VTL L=5e-08
+ W=2.1e-07 AD=2.94e-14 AS=2.94e-14 PD=7e-07 PS=7e-07
mXI0<5>/MM_i_3 XI0<5>/NET_0 ARITHMETIC_OUT<5> VSS! VSS! NMOS_VTL L=5e-08
+ W=2.1e-07 AD=2.94e-14 AS=4.375e-14 PD=7e-07 PS=1.11e-06
mXI0<5>/MM_i_0 ALU_PRE<5> XI0<5>/Z_NEG VSS! VSS! NMOS_VTL L=5e-08 W=4.15e-07
+ AD=4.3575e-14 AS=4.375e-14 PD=1.04e-06 PS=1.11e-06
mXI0<5>/MM_i_11 VDD! CTRL_2_BUF<5> XI0<5>/X1 VDD! PMOS_VTL L=5e-08 W=3.15e-07
+ AD=4.41e-14 AS=3.3075e-14 PD=9.1e-07 PS=8.4e-07
mXI0<5>/MM_i_8 VDD! LOGIC_OUT<5> XI0<5>/NET_2 VDD! PMOS_VTL L=5e-08 W=3.15e-07
+ AD=4.41e-14 AS=4.41e-14 PD=9.1e-07 PS=9.1e-07
mXI0<5>/MM_i_6 XI0<5>/NET_2 CTRL_2_BUF<5> XI0<5>/Z_NEG VDD! PMOS_VTL L=5e-08
+ W=3.15e-07 AD=4.41e-14 AS=4.41e-14 PD=9.1e-07 PS=9.1e-07
mXI0<5>/MM_i_9 XI0<5>/NET_3 XI0<5>/X1 XI0<5>/Z_NEG VDD! PMOS_VTL L=5e-08
+ W=3.15e-07 AD=4.41e-14 AS=4.41e-14 PD=9.1e-07 PS=9.1e-07
mXI0<5>/MM_i_7 VDD! ARITHMETIC_OUT<5> XI0<5>/NET_3 VDD! PMOS_VTL L=5e-08
+ W=3.15e-07 AD=6.615e-14 AS=4.41e-14 PD=1.54e-06 PS=9.1e-07
mXI0<5>/MM_i_1 ALU_PRE<5> XI0<5>/Z_NEG VDD! VDD! PMOS_VTL L=5e-08 W=6.3e-07
+ AD=6.615e-14 AS=6.615e-14 PD=1.47e-06 PS=1.54e-06
mXI18/MM_i_2 VSS! CTRL_2_BUF<6> XI18/Z_NEG VSS! NMOS_VTL L=5e-08 W=2.1e-07
+ AD=4.375e-14 AS=2.205e-14 PD=1.11e-06 PS=6.3e-07
mXI18/MM_i_0 CTRL_2_BUF<5> XI18/Z_NEG VSS! VSS! NMOS_VTL L=5e-08 W=4.15e-07
+ AD=4.3575e-14 AS=4.375e-14 PD=1.04e-06 PS=1.11e-06
mXI18/MM_i_3 VDD! CTRL_2_BUF<6> XI18/Z_NEG VDD! PMOS_VTL L=5e-08 W=3.15e-07
+ AD=6.615e-14 AS=3.3075e-14 PD=1.54e-06 PS=8.4e-07
mXI18/MM_i_1 CTRL_2_BUF<5> XI18/Z_NEG VDD! VDD! PMOS_VTL L=5e-08 W=6.3e-07
+ AD=6.615e-14 AS=6.615e-14 PD=1.47e-06 PS=1.54e-06
mXI2<4>/MM_i_0_0_x4_0 VSS! NET3<11> ALU_OUT<4> VSS! NMOS_VTL L=5e-08 W=4.15e-07
+ AD=4.3575e-14 AS=5.81e-14 PD=1.04e-06 PS=1.11e-06
mXI2<4>/MM_i_0_0_x4_1 VSS! NET3<11> ALU_OUT<4> VSS! NMOS_VTL L=5e-08 W=4.15e-07
+ AD=5.81e-14 AS=5.81e-14 PD=1.11e-06 PS=1.11e-06
mXI2<4>/MM_i_0_0_x4_2 VSS! NET3<11> ALU_OUT<4> VSS! NMOS_VTL L=5e-08 W=4.15e-07
+ AD=5.81e-14 AS=5.81e-14 PD=1.11e-06 PS=1.11e-06
mXI2<4>/MM_i_0_0_x4_3 VSS! NET3<11> ALU_OUT<4> VSS! NMOS_VTL L=5e-08 W=4.15e-07
+ AD=4.3575e-14 AS=5.81e-14 PD=1.04e-06 PS=1.11e-06
mXI2<4>/MM_i_1_0_x4_0 VDD! NET3<11> ALU_OUT<4> VDD! PMOS_VTL L=5e-08 W=6.3e-07
+ AD=6.615e-14 AS=8.82e-14 PD=1.47e-06 PS=1.54e-06
mXI2<4>/MM_i_1_0_x4_1 VDD! NET3<11> ALU_OUT<4> VDD! PMOS_VTL L=5e-08 W=6.3e-07
+ AD=8.82e-14 AS=8.82e-14 PD=1.54e-06 PS=1.54e-06
mXI2<4>/MM_i_1_0_x4_2 VDD! NET3<11> ALU_OUT<4> VDD! PMOS_VTL L=5e-08 W=6.3e-07
+ AD=8.82e-14 AS=8.82e-14 PD=1.54e-06 PS=1.54e-06
mXI2<4>/MM_i_1_0_x4_3 VDD! NET3<11> ALU_OUT<4> VDD! PMOS_VTL L=5e-08 W=6.3e-07
+ AD=6.615e-14 AS=8.82e-14 PD=1.47e-06 PS=1.54e-06
mXI1<4>/MM_i_0 NET3<11> ALU_PRE<4> VSS! VSS! NMOS_VTL L=5e-08 W=4.15e-07
+ AD=4.3575e-14 AS=4.3575e-14 PD=1.04e-06 PS=1.04e-06
mXI1<4>/MM_i_1 NET3<11> ALU_PRE<4> VDD! VDD! PMOS_VTL L=5e-08 W=6.3e-07
+ AD=6.615e-14 AS=6.615e-14 PD=1.47e-06 PS=1.47e-06
mXI0<4>/MM_i_10 VSS! CTRL_2_BUF<4> XI0<4>/X1 VSS! NMOS_VTL L=5e-08 W=2.1e-07
+ AD=2.94e-14 AS=2.205e-14 PD=7e-07 PS=6.3e-07
mXI0<4>/MM_i_4 XI0<4>/NET_1 LOGIC_OUT<4> VSS! VSS! NMOS_VTL L=5e-08 W=2.1e-07
+ AD=2.94e-14 AS=2.94e-14 PD=7e-07 PS=7e-07
mXI0<4>/MM_i_5 XI0<4>/Z_NEG XI0<4>/X1 XI0<4>/NET_1 VSS! NMOS_VTL L=5e-08
+ W=2.1e-07 AD=2.94e-14 AS=2.94e-14 PD=7e-07 PS=7e-07
mXI0<4>/MM_i_2 XI0<4>/Z_NEG CTRL_2_BUF<4> XI0<4>/NET_0 VSS! NMOS_VTL L=5e-08
+ W=2.1e-07 AD=2.94e-14 AS=2.94e-14 PD=7e-07 PS=7e-07
mXI0<4>/MM_i_3 XI0<4>/NET_0 ARITHMETIC_OUT<4> VSS! VSS! NMOS_VTL L=5e-08
+ W=2.1e-07 AD=2.94e-14 AS=4.375e-14 PD=7e-07 PS=1.11e-06
mXI0<4>/MM_i_0 ALU_PRE<4> XI0<4>/Z_NEG VSS! VSS! NMOS_VTL L=5e-08 W=4.15e-07
+ AD=4.3575e-14 AS=4.375e-14 PD=1.04e-06 PS=1.11e-06
mXI0<4>/MM_i_11 VDD! CTRL_2_BUF<4> XI0<4>/X1 VDD! PMOS_VTL L=5e-08 W=3.15e-07
+ AD=4.41e-14 AS=3.3075e-14 PD=9.1e-07 PS=8.4e-07
mXI0<4>/MM_i_8 VDD! LOGIC_OUT<4> XI0<4>/NET_2 VDD! PMOS_VTL L=5e-08 W=3.15e-07
+ AD=4.41e-14 AS=4.41e-14 PD=9.1e-07 PS=9.1e-07
mXI0<4>/MM_i_6 XI0<4>/NET_2 CTRL_2_BUF<4> XI0<4>/Z_NEG VDD! PMOS_VTL L=5e-08
+ W=3.15e-07 AD=4.41e-14 AS=4.41e-14 PD=9.1e-07 PS=9.1e-07
mXI0<4>/MM_i_9 XI0<4>/NET_3 XI0<4>/X1 XI0<4>/Z_NEG VDD! PMOS_VTL L=5e-08
+ W=3.15e-07 AD=4.41e-14 AS=4.41e-14 PD=9.1e-07 PS=9.1e-07
mXI0<4>/MM_i_7 VDD! ARITHMETIC_OUT<4> XI0<4>/NET_3 VDD! PMOS_VTL L=5e-08
+ W=3.15e-07 AD=6.615e-14 AS=4.41e-14 PD=1.54e-06 PS=9.1e-07
mXI0<4>/MM_i_1 ALU_PRE<4> XI0<4>/Z_NEG VDD! VDD! PMOS_VTL L=5e-08 W=6.3e-07
+ AD=6.615e-14 AS=6.615e-14 PD=1.47e-06 PS=1.54e-06
mXI19/MM_i_2 VSS! CTRL_2_BUF<5> XI19/Z_NEG VSS! NMOS_VTL L=5e-08 W=2.1e-07
+ AD=4.375e-14 AS=2.205e-14 PD=1.11e-06 PS=6.3e-07
mXI19/MM_i_0 CTRL_2_BUF<4> XI19/Z_NEG VSS! VSS! NMOS_VTL L=5e-08 W=4.15e-07
+ AD=4.3575e-14 AS=4.375e-14 PD=1.04e-06 PS=1.11e-06
mXI19/MM_i_3 VDD! CTRL_2_BUF<5> XI19/Z_NEG VDD! PMOS_VTL L=5e-08 W=3.15e-07
+ AD=6.615e-14 AS=3.3075e-14 PD=1.54e-06 PS=8.4e-07
mXI19/MM_i_1 CTRL_2_BUF<4> XI19/Z_NEG VDD! VDD! PMOS_VTL L=5e-08 W=6.3e-07
+ AD=6.615e-14 AS=6.615e-14 PD=1.47e-06 PS=1.54e-06
mXI2<7>/MM_i_0_0_x4_0 VSS! NET3<8> ALU_OUT<7> VSS! NMOS_VTL L=5e-08 W=4.15e-07
+ AD=4.3575e-14 AS=5.81e-14 PD=1.04e-06 PS=1.11e-06
mXI2<7>/MM_i_0_0_x4_1 VSS! NET3<8> ALU_OUT<7> VSS! NMOS_VTL L=5e-08 W=4.15e-07
+ AD=5.81e-14 AS=5.81e-14 PD=1.11e-06 PS=1.11e-06
mXI2<7>/MM_i_0_0_x4_2 VSS! NET3<8> ALU_OUT<7> VSS! NMOS_VTL L=5e-08 W=4.15e-07
+ AD=5.81e-14 AS=5.81e-14 PD=1.11e-06 PS=1.11e-06
mXI2<7>/MM_i_0_0_x4_3 VSS! NET3<8> ALU_OUT<7> VSS! NMOS_VTL L=5e-08 W=4.15e-07
+ AD=4.3575e-14 AS=5.81e-14 PD=1.04e-06 PS=1.11e-06
mXI2<7>/MM_i_1_0_x4_0 VDD! NET3<8> ALU_OUT<7> VDD! PMOS_VTL L=5e-08 W=6.3e-07
+ AD=6.615e-14 AS=8.82e-14 PD=1.47e-06 PS=1.54e-06
mXI2<7>/MM_i_1_0_x4_1 VDD! NET3<8> ALU_OUT<7> VDD! PMOS_VTL L=5e-08 W=6.3e-07
+ AD=8.82e-14 AS=8.82e-14 PD=1.54e-06 PS=1.54e-06
mXI2<7>/MM_i_1_0_x4_2 VDD! NET3<8> ALU_OUT<7> VDD! PMOS_VTL L=5e-08 W=6.3e-07
+ AD=8.82e-14 AS=8.82e-14 PD=1.54e-06 PS=1.54e-06
mXI2<7>/MM_i_1_0_x4_3 VDD! NET3<8> ALU_OUT<7> VDD! PMOS_VTL L=5e-08 W=6.3e-07
+ AD=6.615e-14 AS=8.82e-14 PD=1.47e-06 PS=1.54e-06
mXI1<7>/MM_i_0 NET3<8> ALU_PRE<7> VSS! VSS! NMOS_VTL L=5e-08 W=4.15e-07
+ AD=4.3575e-14 AS=4.3575e-14 PD=1.04e-06 PS=1.04e-06
mXI1<7>/MM_i_1 NET3<8> ALU_PRE<7> VDD! VDD! PMOS_VTL L=5e-08 W=6.3e-07
+ AD=6.615e-14 AS=6.615e-14 PD=1.47e-06 PS=1.47e-06
mXI0<7>/MM_i_10 VSS! CTRL_2_BUF<7> XI0<7>/X1 VSS! NMOS_VTL L=5e-08 W=2.1e-07
+ AD=2.94e-14 AS=2.205e-14 PD=7e-07 PS=6.3e-07
mXI0<7>/MM_i_4 XI0<7>/NET_1 LOGIC_OUT<7> VSS! VSS! NMOS_VTL L=5e-08 W=2.1e-07
+ AD=2.94e-14 AS=2.94e-14 PD=7e-07 PS=7e-07
mXI0<7>/MM_i_5 XI0<7>/Z_NEG XI0<7>/X1 XI0<7>/NET_1 VSS! NMOS_VTL L=5e-08
+ W=2.1e-07 AD=2.94e-14 AS=2.94e-14 PD=7e-07 PS=7e-07
mXI0<7>/MM_i_2 XI0<7>/Z_NEG CTRL_2_BUF<7> XI0<7>/NET_0 VSS! NMOS_VTL L=5e-08
+ W=2.1e-07 AD=2.94e-14 AS=2.94e-14 PD=7e-07 PS=7e-07
mXI0<7>/MM_i_3 XI0<7>/NET_0 ARITHMETIC_OUT<7> VSS! VSS! NMOS_VTL L=5e-08
+ W=2.1e-07 AD=2.94e-14 AS=4.375e-14 PD=7e-07 PS=1.11e-06
mXI0<7>/MM_i_0 ALU_PRE<7> XI0<7>/Z_NEG VSS! VSS! NMOS_VTL L=5e-08 W=4.15e-07
+ AD=4.3575e-14 AS=4.375e-14 PD=1.04e-06 PS=1.11e-06
mXI0<7>/MM_i_11 VDD! CTRL_2_BUF<7> XI0<7>/X1 VDD! PMOS_VTL L=5e-08 W=3.15e-07