
** Library name: cad6
** Cell name: INV_X4
** View name: schematic
.subckt INV_X4 a zn
