
** Library name: cad6
** Cell name: NOR2_X1
** View name: schematic
.subckt NOR2_X1 a1 a2 zn
