
** Library name: cad5
** Cell name: DLH_X1
** View name: schematic
.subckt DLH_X1 d g q
