
** Library name: cad6
** Cell name: XOR2_X1
** View name: schematic
.subckt XOR2_X1 a b z
