
** Library name: cad6
** Cell name: INVMUX4_X1
** View name: schematic
.subckt INVMUX4_X1 a b c d s<1> s<0> zn
