
** Library name: cad5
** Cell name: INV_X1
** View name: schematic
.subckt INV_X1 a zn
