
** Library name: cad6
** Cell name: ARITMETIC_UNIT_CHEAT_XOR
** View name: schematic
.subckt ARITMETIC_UNIT_CHEAT_XOR a<15> a<14> a<13> a<12> a<11> a<10> a<9> a<8> a<7> a<6> a<5> a<4> a<3> a<2> a<1> a<0> aritmetic_out<15> aritmetic_out<14> aritmetic_out<13> aritmetic_out<12> aritmetic_out<11> aritmetic_out<10> aritmetic_out<9> aritmetic_out<8> aritmetic_out<7> aritmetic_out<6> aritmetic_out<5> aritmetic_out<4> aritmetic_out<3> aritmetic_out<2> aritmetic_out<1> aritmetic_out<0> a_temp<15> b<15> b<14> b<13> b<12> b<11> b<10> b<9> b<8> b<7> b<6> b<5> b<4> b<3> b<2> b<1> b<0> co s
