
** Library name: cad6
** Cell name: 16B_CSA
** View name: schematic
.subckt cad6_16B_CSA_schematic a<15> a<14> a<13> a<12> a<11> a<10> a<9> a<8> a<7> a<6> a<5> a<4> a<3> a<2> a<1> a<0> b<15> b<14> b<13> b<12> b<11> b<10> b<9> b<8> b<7> b<6> b<5> b<4> b<3> b<2> b<1> b<0> ci co s<15> s<14> s<13> s<12> s<11> s<10> s<9> s<8> s<7> s<6> s<5> s<4> s<3> s<2> s<1> s<0>
