
** Library name: cad6
** Cell name: MUX2_X1
** View name: schematic
.subckt MUX2_X1 a b s z
