
** Library name: cad5
** Cell name: DLL_X1
** View name: schematic
.subckt DLL_X1 d gn q
