
** Library name: cad6
** Cell name: ALU_ARITHMETIC_UNIT_16B
** View name: schematic
.subckt ALU_ARITHMETIC_UNIT_16B arithmetic_out<15> arithmetic_out<14> arithmetic_out<13> arithmetic_out<12> arithmetic_out<11> arithmetic_out<10> arithmetic_out<9> arithmetic_out<8> arithmetic_out<7> arithmetic_out<6> arithmetic_out<5> arithmetic_out<4> arithmetic_out<3> arithmetic_out<2> arithmetic_out<1> arithmetic_out<0> co logic_out<15> logic_out<14> logic_out<13> logic_out<12> logic_out<11> logic_out<10> logic_out<9> logic_out<8> logic_out<7> logic_out<6> logic_out<5> logic_out<4> logic_out<3> logic_out<2> logic_out<1> logic_out<0> logic_out_buf<15> logic_out_buf<14> logic_out_buf<13> logic_out_buf<12> logic_out_buf<11> logic_out_buf<10> logic_out_buf<9> logic_out_buf<8> logic_out_buf<7> logic_out_buf<6> logic_out_buf<5> logic_out_buf<4> logic_out_buf<3> logic_out_buf<2> logic_out_buf<1> logic_out_buf<0> ctrl<0> op0<15> op0<14> op0<13> op0<12> op0<11> op0<10> op0<9> op0<8> op0<7> op0<6> op0<5> op0<4> op0<3> op0<2> op0<1> op0<0> op0_temp<15> op1<15> op1<14> op1<13> op1<12> op1<11> op1<10> op1<9> op1<8>
+op1<7> op1<6> op1<5> op1<4> op1<3> op1<2> op1<1> op1<0>
