.GLOBAL vdd! vss!


.OPTION
+ ARTIST=2
+ INGOLD=2
+ PARHIER=LOCAL
+ PSF=2

* File: LFSR.pex.netlist
* Created: Tue Nov  9 02:22:27 2021
* Program "Calibre xRC"
* Version "v2021.3_35.19"
* 
.subckt LFSR  RST CLK STATE<0> STATE<1> STATE<2> STATE<3> STATE<4>
+ STATE<5> STATE<6> STATE<7> STATE<8> STATE<9> STATE<10> STATE<11> STATE<12>
+ STATE<13> STATE<14> STATE<15>
* 
mXxor0.XI0.XI2.MNMOS0 XXOR0.XI0.XI2.NET2 XXOR0.XI0.NET2 VSS! VSS! NMOS_VTG
+ L=6e-08 W=3.5e-07 AD=5.6e-14 AS=3.675e-14 PD=1.02e-06 PS=9.1e-07
mXxor0.XI0.XI2.MNMOS1 XXOR0.NET1 XXOR0.XI0.NET3 XXOR0.XI0.XI2.NET2 VSS! NMOS_VTG
+ L=6e-08 W=3.5e-07 AD=3.675e-14 AS=5.6e-14 PD=9.1e-07 PS=1.02e-06
mXxor0.XI0.XI2.MPMOS0 XXOR0.NET1 XXOR0.XI0.NET2 VDD! VDD! PMOS_VTG L=6e-08
+ W=3.5e-07 AD=5.6e-14 AS=3.675e-14 PD=1.02e-06 PS=9.1e-07
mXxor0.XI0.XI2.MPMOS1 XXOR0.NET1 XXOR0.XI0.NET3 VDD! VDD! PMOS_VTG L=6e-08
+ W=3.5e-07 AD=5.6e-14 AS=3.675e-14 PD=1.02e-06 PS=9.1e-07
mXxor0.XI0.XI0.MNMOS0 XXOR0.XI0.XI0.NET2 STATE<3> VSS! VSS! NMOS_VTG L=6e-08
+ W=3.5e-07 AD=5.6e-14 AS=3.675e-14 PD=1.02e-06 PS=9.1e-07
mXxor0.XI0.XI0.MNMOS1 XXOR0.XI0.NET2 XXOR0.XI0.NET1 XXOR0.XI0.XI0.NET2 VSS!
+ NMOS_VTG L=6e-08 W=3.5e-07 AD=3.675e-14 AS=5.6e-14 PD=9.1e-07 PS=1.02e-06
mXxor0.XI0.XI0.MPMOS0 XXOR0.XI0.NET2 STATE<3> VDD! VDD! PMOS_VTG L=6e-08
+ W=3.5e-07 AD=5.6e-14 AS=3.675e-14 PD=1.02e-06 PS=9.1e-07
mXxor0.XI0.XI0.MPMOS1 XXOR0.XI0.NET2 XXOR0.XI0.NET1 VDD! VDD! PMOS_VTG L=6e-08
+ W=3.5e-07 AD=5.6e-14 AS=3.675e-14 PD=1.02e-06 PS=9.1e-07
mXxor0.XI0.Xnand0.MNMOS0 XXOR0.XI0.XNAND0.NET2 STATE<3> VSS! VSS! NMOS_VTG
+ L=6e-08 W=3.5e-07 AD=5.6e-14 AS=3.675e-14 PD=1.02e-06 PS=9.1e-07
mXxor0.XI0.Xnand0.MNMOS1 XXOR0.XI0.NET1 STATE<5> XXOR0.XI0.XNAND0.NET2 VSS!
+ NMOS_VTG L=6e-08 W=3.5e-07 AD=3.675e-14 AS=5.6e-14 PD=9.1e-07 PS=1.02e-06
mXxor0.XI0.Xnand0.MPMOS0 XXOR0.XI0.NET1 STATE<3> VDD! VDD! PMOS_VTG L=6e-08
+ W=3.5e-07 AD=5.6e-14 AS=3.675e-14 PD=1.02e-06 PS=9.1e-07
mXxor0.XI0.Xnand0.MPMOS1 XXOR0.XI0.NET1 STATE<5> VDD! VDD! PMOS_VTG L=6e-08
+ W=3.5e-07 AD=5.6e-14 AS=3.675e-14 PD=1.02e-06 PS=9.1e-07
mXxor0.XI0.XI1.MNMOS0 XXOR0.XI0.XI1.NET2 XXOR0.XI0.NET1 VSS! VSS! NMOS_VTG
+ L=6e-08 W=3.5e-07 AD=5.6e-14 AS=3.675e-14 PD=1.02e-06 PS=9.1e-07
mXxor0.XI0.XI1.MNMOS1 XXOR0.XI0.NET3 STATE<5> XXOR0.XI0.XI1.NET2 VSS! NMOS_VTG
+ L=6e-08 W=3.5e-07 AD=3.675e-14 AS=5.6e-14 PD=9.1e-07 PS=1.02e-06
mXxor0.XI0.XI1.MPMOS0 XXOR0.XI0.NET3 XXOR0.XI0.NET1 VDD! VDD! PMOS_VTG L=6e-08
+ W=3.5e-07 AD=5.6e-14 AS=3.675e-14 PD=1.02e-06 PS=9.1e-07
mXxor0.XI0.XI1.MPMOS1 XXOR0.XI0.NET3 STATE<5> VDD! VDD! PMOS_VTG L=6e-08
+ W=3.5e-07 AD=5.6e-14 AS=3.675e-14 PD=1.02e-06 PS=9.1e-07
mXxor0.XI1.XI2.MNMOS0 XXOR0.XI1.XI2.NET2 XXOR0.XI1.NET2 VSS! VSS! NMOS_VTG
+ L=6e-08 W=3.5e-07 AD=5.6e-14 AS=3.675e-14 PD=1.02e-06 PS=9.1e-07
mXxor0.XI1.XI2.MNMOS1 XXOR0.NET2 XXOR0.XI1.NET3 XXOR0.XI1.XI2.NET2 VSS! NMOS_VTG
+ L=6e-08 W=3.5e-07 AD=3.675e-14 AS=5.6e-14 PD=9.1e-07 PS=1.02e-06
mXxor0.XI1.XI2.MPMOS0 XXOR0.NET2 XXOR0.XI1.NET2 VDD! VDD! PMOS_VTG L=6e-08
+ W=3.5e-07 AD=5.6e-14 AS=3.675e-14 PD=1.02e-06 PS=9.1e-07
mXxor0.XI1.XI2.MPMOS1 XXOR0.NET2 XXOR0.XI1.NET3 VDD! VDD! PMOS_VTG L=6e-08
+ W=3.5e-07 AD=5.6e-14 AS=3.675e-14 PD=1.02e-06 PS=9.1e-07
mXxor0.XI1.XI0.MNMOS0 XXOR0.XI1.XI0.NET2 STATE<2> VSS! VSS! NMOS_VTG L=6e-08
+ W=3.5e-07 AD=5.6e-14 AS=3.675e-14 PD=1.02e-06 PS=9.1e-07
mXxor0.XI1.XI0.MNMOS1 XXOR0.XI1.NET2 XXOR0.XI1.NET1 XXOR0.XI1.XI0.NET2 VSS!
+ NMOS_VTG L=6e-08 W=3.5e-07 AD=3.675e-14 AS=5.6e-14 PD=9.1e-07 PS=1.02e-06
mXxor0.XI1.XI0.MPMOS0 XXOR0.XI1.NET2 STATE<2> VDD! VDD! PMOS_VTG L=6e-08
+ W=3.5e-07 AD=5.6e-14 AS=3.675e-14 PD=1.02e-06 PS=9.1e-07
mXxor0.XI1.XI0.MPMOS1 XXOR0.XI1.NET2 XXOR0.XI1.NET1 VDD! VDD! PMOS_VTG L=6e-08
+ W=3.5e-07 AD=5.6e-14 AS=3.675e-14 PD=1.02e-06 PS=9.1e-07
mXxor0.XI1.Xnand0.MNMOS0 XXOR0.XI1.XNAND0.NET2 STATE<2> VSS! VSS! NMOS_VTG
+ L=6e-08 W=3.5e-07 AD=5.6e-14 AS=3.675e-14 PD=1.02e-06 PS=9.1e-07
mXxor0.XI1.Xnand0.MNMOS1 XXOR0.XI1.NET1 XXOR0.NET1 XXOR0.XI1.XNAND0.NET2 VSS!
+ NMOS_VTG L=6e-08 W=3.5e-07 AD=3.675e-14 AS=5.6e-14 PD=9.1e-07 PS=1.02e-06
mXxor0.XI1.Xnand0.MPMOS0 XXOR0.XI1.NET1 STATE<2> VDD! VDD! PMOS_VTG L=6e-08
+ W=3.5e-07 AD=5.6e-14 AS=3.675e-14 PD=1.02e-06 PS=9.1e-07
mXxor0.XI1.Xnand0.MPMOS1 XXOR0.XI1.NET1 XXOR0.NET1 VDD! VDD! PMOS_VTG L=6e-08
+ W=3.5e-07 AD=5.6e-14 AS=3.675e-14 PD=1.02e-06 PS=9.1e-07
mXxor0.XI1.XI1.MNMOS0 XXOR0.XI1.XI1.NET2 XXOR0.XI1.NET1 VSS! VSS! NMOS_VTG
+ L=6e-08 W=3.5e-07 AD=5.6e-14 AS=3.675e-14 PD=1.02e-06 PS=9.1e-07
mXxor0.XI1.XI1.MNMOS1 XXOR0.XI1.NET3 XXOR0.NET1 XXOR0.XI1.XI1.NET2 VSS! NMOS_VTG
+ L=6e-08 W=3.5e-07 AD=3.675e-14 AS=5.6e-14 PD=9.1e-07 PS=1.02e-06
mXxor0.XI1.XI1.MPMOS0 XXOR0.XI1.NET3 XXOR0.XI1.NET1 VDD! VDD! PMOS_VTG L=6e-08
+ W=3.5e-07 AD=5.6e-14 AS=3.675e-14 PD=1.02e-06 PS=9.1e-07
mXxor0.XI1.XI1.MPMOS1 XXOR0.XI1.NET3 XXOR0.NET1 VDD! VDD! PMOS_VTG L=6e-08
+ W=3.5e-07 AD=5.6e-14 AS=3.675e-14 PD=1.02e-06 PS=9.1e-07
mXxor0.XI2.XI2.MNMOS0 XXOR0.XI2.XI2.NET2 XXOR0.XI2.NET2 VSS! VSS! NMOS_VTG
+ L=6e-08 W=3.5e-07 AD=5.6e-14 AS=3.675e-14 PD=1.02e-06 PS=9.1e-07
mXxor0.XI2.XI2.MNMOS1 NET37 XXOR0.XI2.NET3 XXOR0.XI2.XI2.NET2 VSS! NMOS_VTG
+ L=6e-08 W=3.5e-07 AD=3.675e-14 AS=5.6e-14 PD=9.1e-07 PS=1.02e-06
mXxor0.XI2.XI2.MPMOS0 NET37 XXOR0.XI2.NET2 VDD! VDD! PMOS_VTG L=6e-08 W=3.5e-07
+ AD=5.6e-14 AS=3.675e-14 PD=1.02e-06 PS=9.1e-07
mXxor0.XI2.XI2.MPMOS1 NET37 XXOR0.XI2.NET3 VDD! VDD! PMOS_VTG L=6e-08 W=3.5e-07
+ AD=5.6e-14 AS=3.675e-14 PD=1.02e-06 PS=9.1e-07
mXxor0.XI2.XI0.MNMOS0 XXOR0.XI2.XI0.NET2 STATE<0> VSS! VSS! NMOS_VTG L=6e-08
+ W=3.5e-07 AD=5.6e-14 AS=3.675e-14 PD=1.02e-06 PS=9.1e-07
mXxor0.XI2.XI0.MNMOS1 XXOR0.XI2.NET2 XXOR0.XI2.NET1 XXOR0.XI2.XI0.NET2 VSS!
+ NMOS_VTG L=6e-08 W=3.5e-07 AD=3.675e-14 AS=5.6e-14 PD=9.1e-07 PS=1.02e-06
mXxor0.XI2.XI0.MPMOS0 XXOR0.XI2.NET2 STATE<0> VDD! VDD! PMOS_VTG L=6e-08
+ W=3.5e-07 AD=5.6e-14 AS=3.675e-14 PD=1.02e-06 PS=9.1e-07
mXxor0.XI2.XI0.MPMOS1 XXOR0.XI2.NET2 XXOR0.XI2.NET1 VDD! VDD! PMOS_VTG L=6e-08
+ W=3.5e-07 AD=5.6e-14 AS=3.675e-14 PD=1.02e-06 PS=9.1e-07
mXxor0.XI2.Xnand0.MNMOS0 XXOR0.XI2.XNAND0.NET2 STATE<0> VSS! VSS! NMOS_VTG
+ L=6e-08 W=3.5e-07 AD=5.6e-14 AS=3.675e-14 PD=1.02e-06 PS=9.1e-07
mXxor0.XI2.Xnand0.MNMOS1 XXOR0.XI2.NET1 XXOR0.NET2 XXOR0.XI2.XNAND0.NET2 VSS!
+ NMOS_VTG L=6e-08 W=3.5e-07 AD=3.675e-14 AS=5.6e-14 PD=9.1e-07 PS=1.02e-06
mXxor0.XI2.Xnand0.MPMOS0 XXOR0.XI2.NET1 STATE<0> VDD! VDD! PMOS_VTG L=6e-08
+ W=3.5e-07 AD=5.6e-14 AS=3.675e-14 PD=1.02e-06 PS=9.1e-07
mXxor0.XI2.Xnand0.MPMOS1 XXOR0.XI2.NET1 XXOR0.NET2 VDD! VDD! PMOS_VTG L=6e-08
+ W=3.5e-07 AD=5.6e-14 AS=3.675e-14 PD=1.02e-06 PS=9.1e-07
mXxor0.XI2.XI1.MNMOS0 XXOR0.XI2.XI1.NET2 XXOR0.XI2.NET1 VSS! VSS! NMOS_VTG
+ L=6e-08 W=3.5e-07 AD=5.6e-14 AS=3.675e-14 PD=1.02e-06 PS=9.1e-07
mXxor0.XI2.XI1.MNMOS1 XXOR0.XI2.NET3 XXOR0.NET2 XXOR0.XI2.XI1.NET2 VSS! NMOS_VTG
+ L=6e-08 W=3.5e-07 AD=3.675e-14 AS=5.6e-14 PD=9.1e-07 PS=1.02e-06
mXxor0.XI2.XI1.MPMOS0 XXOR0.XI2.NET3 XXOR0.XI2.NET1 VDD! VDD! PMOS_VTG L=6e-08
+ W=3.5e-07 AD=5.6e-14 AS=3.675e-14 PD=1.02e-06 PS=9.1e-07
mXxor0.XI2.XI1.MPMOS1 XXOR0.XI2.NET3 XXOR0.NET2 VDD! VDD! PMOS_VTG L=6e-08
+ W=3.5e-07 AD=5.6e-14 AS=3.675e-14 PD=1.02e-06 PS=9.1e-07
mXor0.XI1.MM0 NET35 XOR0.NET1 VSS! VSS! NMOS_VTG L=6e-08 W=3.45e-07
+ AD=3.6225e-14 AS=3.6225e-14 PD=9e-07 PS=9e-07
mXor0.XI1.MM1 NET35 XOR0.NET1 VDD! VDD! PMOS_VTG L=6e-08 W=4.35e-07
+ AD=4.5675e-14 AS=4.5675e-14 PD=1.08e-06 PS=1.08e-06
mXor0.XI0.MNMOS0 XOR0.NET1 RST VSS! VSS! NMOS_VTG L=6e-08 W=9.5e-08 AD=1.52e-14
+ AS=9.975e-15 PD=5.1e-07 PS=4e-07
mXor0.XI0.MNMOS1 XOR0.NET1 NET37 VSS! VSS! NMOS_VTG L=6e-08 W=9.5e-08
+ AD=1.52e-14 AS=9.975e-15 PD=5.1e-07 PS=4e-07
mXor0.XI0.MPMOS0 XOR0.XI0.NET1 RST VDD! VDD! PMOS_VTG L=6e-08 W=3.55e-07
+ AD=5.68e-14 AS=3.7275e-14 PD=1.03e-06 PS=9.2e-07
mXor0.XI0.MPMOS1 XOR0.NET1 NET37 XOR0.XI0.NET1 VDD! PMOS_VTG L=6e-08 W=3.55e-07
+ AD=3.7275e-14 AS=5.68e-14 PD=9.2e-07 PS=1.03e-06
mXdfsr15.Xml0.Xnand0.MNMOS1 XDFSR15.XML0.XNAND0.NET2 XDFSR15.N VSS! VSS!
+ NMOS_VTG L=6e-08 W=2.5e-07 AD=4e-14 AS=2.625e-14 PD=8.2e-07 PS=7.1e-07
mXdfsr15.Xml0.Xnand0.MNMOS0 XDFSR15.XML0.N4 XDFSR15.RST_BAR
+ XDFSR15.XML0.XNAND0.NET2 VSS! NMOS_VTG L=6e-08 W=2.5e-07 AD=2.625e-14 AS=4e-14
+ PD=7.1e-07 PS=8.2e-07
mXdfsr15.Xml0.Xnand0.MPMOS1 XDFSR15.XML0.N4 XDFSR15.N VDD! VDD! PMOS_VTG L=6e-08
+ W=5.25e-07 AD=8.4e-14 AS=5.5125e-14 PD=1.37e-06 PS=1.26e-06
mXdfsr15.Xml0.Xnand0.MPMOS0 XDFSR15.XML0.N4 XDFSR15.RST_BAR VDD! VDD! PMOS_VTG
+ L=6e-08 W=5.25e-07 AD=8.4e-14 AS=5.5125e-14 PD=1.37e-06 PS=1.26e-06
mXdfsr15.Xml0.Xi0.MM0 XDFSR15.XML0.N1 NET35 VSS! VSS! NMOS_VTG L=6e-08
+ W=3.25e-07 AD=3.4125e-14 AS=3.4125e-14 PD=8.6e-07 PS=8.6e-07
mXdfsr15.Xml0.Xi0.MM1 XDFSR15.XML0.N1 NET35 VDD! VDD! PMOS_VTG L=6e-08 W=4.1e-07
+ AD=4.305e-14 AS=4.305e-14 PD=1.03e-06 PS=1.03e-06
mXdfsr15.Xml0.Xi1.MM0 XDFSR15.N XDFSR15.XML0.N2 VSS! VSS! NMOS_VTG L=6e-08
+ W=3.25e-07 AD=3.4125e-14 AS=3.4125e-14 PD=8.6e-07 PS=8.6e-07
mXdfsr15.Xml0.Xi1.MM1 XDFSR15.N XDFSR15.XML0.N2 VDD! VDD! PMOS_VTG L=6e-08
+ W=4.1e-07 AD=4.305e-14 AS=4.305e-14 PD=1.03e-06 PS=1.03e-06
mXdfsr15.Xsl0.Xi0.MM0 XDFSR15.XSL0.N2 XDFSR15.XSL0.N1 VSS! VSS! NMOS_VTG L=6e-08
+ W=3.25e-07 AD=3.4125e-14 AS=3.4125e-14 PD=8.6e-07 PS=8.6e-07
mXdfsr15.Xsl0.Xi0.MM1 XDFSR15.XSL0.N2 XDFSR15.XSL0.N1 VDD! VDD! PMOS_VTG L=6e-08
+ W=4.1e-07 AD=4.305e-14 AS=4.305e-14 PD=1.03e-06 PS=1.03e-06
mXdfsr15.Xsl0.Xi1.MM0 STATE<15> XDFSR15.XSL0.N2 VSS! VSS! NMOS_VTG L=6e-08
+ W=3.25e-07 AD=3.4125e-14 AS=3.4125e-14 PD=8.6e-07 PS=8.6e-07
mXdfsr15.Xsl0.Xi1.MM1 STATE<15> XDFSR15.XSL0.N2 VDD! VDD! PMOS_VTG L=6e-08
+ W=4.1e-07 AD=4.305e-14 AS=4.305e-14 PD=1.03e-06 PS=1.03e-06
mXdfsr15.XI0.MM0 XDFSR15.CLKI_BAR CLK VSS! VSS! NMOS_VTG L=6e-08 W=3.45e-07
+ AD=3.6225e-14 AS=3.6225e-14 PD=9e-07 PS=9e-07
mXdfsr15.XI0.MM1 XDFSR15.CLKI_BAR CLK VDD! VDD! PMOS_VTG L=6e-08 W=4.35e-07
+ AD=4.5675e-14 AS=4.5675e-14 PD=1.08e-06 PS=1.08e-06
mXdfsr15.XI1.MM0 XDFSR15.CLKI XDFSR15.CLKI_BAR VSS! VSS! NMOS_VTG L=6e-08
+ W=3.45e-07 AD=3.6225e-14 AS=3.6225e-14 PD=9e-07 PS=9e-07
mXdfsr15.XI1.MM1 XDFSR15.CLKI XDFSR15.CLKI_BAR VDD! VDD! PMOS_VTG L=6e-08
+ W=4.35e-07 AD=4.5675e-14 AS=4.5675e-14 PD=1.08e-06 PS=1.08e-06
mXdfsr15.XI2.MM0 XDFSR15.RST_BAR VSS! VSS! VSS! NMOS_VTG L=6e-08 W=3.45e-07
+ AD=3.6225e-14 AS=3.6225e-14 PD=9e-07 PS=9e-07
mXdfsr15.XI2.MM1 XDFSR15.RST_BAR VSS! VDD! VDD! PMOS_VTG L=6e-08 W=4.35e-07
+ AD=4.5675e-14 AS=4.5675e-14 PD=1.08e-06 PS=1.08e-06
mXdfsr15.Xsl0.Xnor0.MNMOS1 XDFSR15.XSL0.N3 XDFSR15.XSL0.N2 VSS! VSS! NMOS_VTG
+ L=6e-08 W=9.5e-08 AD=1.52e-14 AS=9.975e-15 PD=5.1e-07 PS=4e-07
mXdfsr15.Xsl0.Xnor0.MNMOS0 XDFSR15.XSL0.N3 VSS! VSS! VSS! NMOS_VTG L=6e-08
+ W=9.5e-08 AD=1.52e-14 AS=9.975e-15 PD=5.1e-07 PS=4e-07
mXdfsr15.Xsl0.Xnor0.MPMOS1 XDFSR15.XSL0.XNOR0.NET1 XDFSR15.XSL0.N2 VDD! VDD!
+ PMOS_VTG L=6e-08 W=3.55e-07 AD=5.68e-14 AS=3.7275e-14 PD=1.03e-06 PS=9.2e-07
mXdfsr15.Xsl0.Xnor0.MPMOS0 XDFSR15.XSL0.N3 VSS! XDFSR15.XSL0.XNOR0.NET1 VDD!
+ PMOS_VTG L=6e-08 W=3.55e-07 AD=3.7275e-14 AS=5.68e-14 PD=9.2e-07 PS=1.03e-06
mXdfsr15.Xml0.Xtg0.MM0 XDFSR15.XML0.N1 XDFSR15.CLKI_BAR XDFSR15.XML0.N2 VSS!
+ NMOS_VTG L=6e-08 W=2.65e-07 AD=4.77e-14 AS=4.77e-14 PD=8.9e-07 PS=8.9e-07
mXdfsr15.Xml0.Xtg0.MM1 XDFSR15.XML0.N1 XDFSR15.CLKI XDFSR15.XML0.N2 VDD!
+ PMOS_VTG L=6e-08 W=2.5e-07 AD=4.5e-14 AS=4.5e-14 PD=8.6e-07 PS=8.6e-07
mXdfsr15.Xml0.Xtg1.MM0 XDFSR15.XML0.N4 XDFSR15.CLKI XDFSR15.XML0.N2 VSS!
+ NMOS_VTG L=6e-08 W=2.65e-07 AD=4.77e-14 AS=4.77e-14 PD=8.9e-07 PS=8.9e-07
mXdfsr15.Xml0.Xtg1.MM1 XDFSR15.XML0.N4 XDFSR15.CLKI_BAR XDFSR15.XML0.N2 VDD!
+ PMOS_VTG L=6e-08 W=2.5e-07 AD=4.5e-14 AS=4.5e-14 PD=8.6e-07 PS=8.6e-07
mXdfsr15.Xsl0.Xtg1.MM0 XDFSR15.N XDFSR15.CLKI XDFSR15.XSL0.N1 VSS! NMOS_VTG
+ L=6e-08 W=2.65e-07 AD=4.77e-14 AS=4.77e-14 PD=8.9e-07 PS=8.9e-07
mXdfsr15.Xsl0.Xtg1.MM1 XDFSR15.N XDFSR15.CLKI_BAR XDFSR15.XSL0.N1 VDD! PMOS_VTG
+ L=6e-08 W=2.5e-07 AD=4.5e-14 AS=4.5e-14 PD=8.6e-07 PS=8.6e-07
mXdfsr15.Xsl0.Xtg0.MM0 XDFSR15.XSL0.N3 XDFSR15.CLKI_BAR XDFSR15.XSL0.N1 VSS!
+ NMOS_VTG L=6e-08 W=2.65e-07 AD=4.77e-14 AS=4.77e-14 PD=8.9e-07 PS=8.9e-07
mXdfsr15.Xsl0.Xtg0.MM1 XDFSR15.XSL0.N3 XDFSR15.CLKI XDFSR15.XSL0.N1 VDD!
+ PMOS_VTG L=6e-08 W=2.5e-07 AD=4.5e-14 AS=4.5e-14 PD=8.6e-07 PS=8.6e-07
mXdfsr14.Xml0.Xnand0.MNMOS1 XDFSR14.XML0.XNAND0.NET2 XDFSR14.N VSS! VSS!
+ NMOS_VTG L=6e-08 W=2.5e-07 AD=4e-14 AS=2.625e-14 PD=8.2e-07 PS=7.1e-07
mXdfsr14.Xml0.Xnand0.MNMOS0 XDFSR14.XML0.N4 XDFSR14.RST_BAR
+ XDFSR14.XML0.XNAND0.NET2 VSS! NMOS_VTG L=6e-08 W=2.5e-07 AD=2.625e-14 AS=4e-14
+ PD=7.1e-07 PS=8.2e-07
mXdfsr14.Xml0.Xnand0.MPMOS1 XDFSR14.XML0.N4 XDFSR14.N VDD! VDD! PMOS_VTG L=6e-08
+ W=5.25e-07 AD=8.4e-14 AS=5.5125e-14 PD=1.37e-06 PS=1.26e-06
mXdfsr14.Xml0.Xnand0.MPMOS0 XDFSR14.XML0.N4 XDFSR14.RST_BAR VDD! VDD! PMOS_VTG
+ L=6e-08 W=5.25e-07 AD=8.4e-14 AS=5.5125e-14 PD=1.37e-06 PS=1.26e-06
mXdfsr14.Xml0.Xi0.MM0 XDFSR14.XML0.N1 STATE<15> VSS! VSS! NMOS_VTG L=6e-08
+ W=3.25e-07 AD=3.4125e-14 AS=3.4125e-14 PD=8.6e-07 PS=8.6e-07
mXdfsr14.Xml0.Xi0.MM1 XDFSR14.XML0.N1 STATE<15> VDD! VDD! PMOS_VTG L=6e-08
+ W=4.1e-07 AD=4.305e-14 AS=4.305e-14 PD=1.03e-06 PS=1.03e-06
mXdfsr14.Xml0.Xi1.MM0 XDFSR14.N XDFSR14.XML0.N2 VSS! VSS! NMOS_VTG L=6e-08
+ W=3.25e-07 AD=3.4125e-14 AS=3.4125e-14 PD=8.6e-07 PS=8.6e-07
mXdfsr14.Xml0.Xi1.MM1 XDFSR14.N XDFSR14.XML0.N2 VDD! VDD! PMOS_VTG L=6e-08
+ W=4.1e-07 AD=4.305e-14 AS=4.305e-14 PD=1.03e-06 PS=1.03e-06
mXdfsr14.Xsl0.Xi0.MM0 XDFSR14.XSL0.N2 XDFSR14.XSL0.N1 VSS! VSS! NMOS_VTG L=6e-08
+ W=3.25e-07 AD=3.4125e-14 AS=3.4125e-14 PD=8.6e-07 PS=8.6e-07
mXdfsr14.Xsl0.Xi0.MM1 XDFSR14.XSL0.N2 XDFSR14.XSL0.N1 VDD! VDD! PMOS_VTG L=6e-08
+ W=4.1e-07 AD=4.305e-14 AS=4.305e-14 PD=1.03e-06 PS=1.03e-06
mXdfsr14.Xsl0.Xi1.MM0 STATE<14> XDFSR14.XSL0.N2 VSS! VSS! NMOS_VTG L=6e-08
+ W=3.25e-07 AD=3.4125e-14 AS=3.4125e-14 PD=8.6e-07 PS=8.6e-07
mXdfsr14.Xsl0.Xi1.MM1 STATE<14> XDFSR14.XSL0.N2 VDD! VDD! PMOS_VTG L=6e-08
+ W=4.1e-07 AD=4.305e-14 AS=4.305e-14 PD=1.03e-06 PS=1.03e-06
mXdfsr14.XI0.MM0 XDFSR14.CLKI_BAR CLK VSS! VSS! NMOS_VTG L=6e-08 W=3.45e-07
+ AD=3.6225e-14 AS=3.6225e-14 PD=9e-07 PS=9e-07
mXdfsr14.XI0.MM1 XDFSR14.CLKI_BAR CLK VDD! VDD! PMOS_VTG L=6e-08 W=4.35e-07
+ AD=4.5675e-14 AS=4.5675e-14 PD=1.08e-06 PS=1.08e-06
mXdfsr14.XI1.MM0 XDFSR14.CLKI XDFSR14.CLKI_BAR VSS! VSS! NMOS_VTG L=6e-08
+ W=3.45e-07 AD=3.6225e-14 AS=3.6225e-14 PD=9e-07 PS=9e-07
mXdfsr14.XI1.MM1 XDFSR14.CLKI XDFSR14.CLKI_BAR VDD! VDD! PMOS_VTG L=6e-08
+ W=4.35e-07 AD=4.5675e-14 AS=4.5675e-14 PD=1.08e-06 PS=1.08e-06
mXdfsr14.XI2.MM0 XDFSR14.RST_BAR RST VSS! VSS! NMOS_VTG L=6e-08 W=3.45e-07
+ AD=3.6225e-14 AS=3.6225e-14 PD=9e-07 PS=9e-07
mXdfsr14.XI2.MM1 XDFSR14.RST_BAR RST VDD! VDD! PMOS_VTG L=6e-08 W=4.35e-07
+ AD=4.5675e-14 AS=4.5675e-14 PD=1.08e-06 PS=1.08e-06
mXdfsr14.Xsl0.Xnor0.MNMOS1 XDFSR14.XSL0.N3 XDFSR14.XSL0.N2 VSS! VSS! NMOS_VTG
+ L=6e-08 W=9.5e-08 AD=1.52e-14 AS=9.975e-15 PD=5.1e-07 PS=4e-07
mXdfsr14.Xsl0.Xnor0.MNMOS0 XDFSR14.XSL0.N3 RST VSS! VSS! NMOS_VTG L=6e-08
+ W=9.5e-08 AD=1.52e-14 AS=9.975e-15 PD=5.1e-07 PS=4e-07
mXdfsr14.Xsl0.Xnor0.MPMOS1 XDFSR14.XSL0.XNOR0.NET1 XDFSR14.XSL0.N2 VDD! VDD!
+ PMOS_VTG L=6e-08 W=3.55e-07 AD=5.68e-14 AS=3.7275e-14 PD=1.03e-06 PS=9.2e-07
mXdfsr14.Xsl0.Xnor0.MPMOS0 XDFSR14.XSL0.N3 RST XDFSR14.XSL0.XNOR0.NET1 VDD!
+ PMOS_VTG L=6e-08 W=3.55e-07 AD=3.7275e-14 AS=5.68e-14 PD=9.2e-07 PS=1.03e-06
mXdfsr14.Xml0.Xtg0.MM0 XDFSR14.XML0.N1 XDFSR14.CLKI_BAR XDFSR14.XML0.N2 VSS!
+ NMOS_VTG L=6e-08 W=2.65e-07 AD=4.77e-14 AS=4.77e-14 PD=8.9e-07 PS=8.9e-07
mXdfsr14.Xml0.Xtg0.MM1 XDFSR14.XML0.N1 XDFSR14.CLKI XDFSR14.XML0.N2 VDD!
+ PMOS_VTG L=6e-08 W=2.5e-07 AD=4.5e-14 AS=4.5e-14 PD=8.6e-07 PS=8.6e-07
mXdfsr14.Xml0.Xtg1.MM0 XDFSR14.XML0.N4 XDFSR14.CLKI XDFSR14.XML0.N2 VSS!
+ NMOS_VTG L=6e-08 W=2.65e-07 AD=4.77e-14 AS=4.77e-14 PD=8.9e-07 PS=8.9e-07
mXdfsr14.Xml0.Xtg1.MM1 XDFSR14.XML0.N4 XDFSR14.CLKI_BAR XDFSR14.XML0.N2 VDD!
+ PMOS_VTG L=6e-08 W=2.5e-07 AD=4.5e-14 AS=4.5e-14 PD=8.6e-07 PS=8.6e-07
mXdfsr14.Xsl0.Xtg1.MM0 XDFSR14.N XDFSR14.CLKI XDFSR14.XSL0.N1 VSS! NMOS_VTG
+ L=6e-08 W=2.65e-07 AD=4.77e-14 AS=4.77e-14 PD=8.9e-07 PS=8.9e-07
mXdfsr14.Xsl0.Xtg1.MM1 XDFSR14.N XDFSR14.CLKI_BAR XDFSR14.XSL0.N1 VDD! PMOS_VTG
+ L=6e-08 W=2.5e-07 AD=4.5e-14 AS=4.5e-14 PD=8.6e-07 PS=8.6e-07
mXdfsr14.Xsl0.Xtg0.MM0 XDFSR14.XSL0.N3 XDFSR14.CLKI_BAR XDFSR14.XSL0.N1 VSS!
+ NMOS_VTG L=6e-08 W=2.65e-07 AD=4.77e-14 AS=4.77e-14 PD=8.9e-07 PS=8.9e-07
mXdfsr14.Xsl0.Xtg0.MM1 XDFSR14.XSL0.N3 XDFSR14.CLKI XDFSR14.XSL0.N1 VDD!
+ PMOS_VTG L=6e-08 W=2.5e-07 AD=4.5e-14 AS=4.5e-14 PD=8.6e-07 PS=8.6e-07
mXdfsr13.Xml0.Xnand0.MNMOS1 XDFSR13.XML0.XNAND0.NET2 XDFSR13.N VSS! VSS!
+ NMOS_VTG L=6e-08 W=2.5e-07 AD=4e-14 AS=2.625e-14 PD=8.2e-07 PS=7.1e-07
mXdfsr13.Xml0.Xnand0.MNMOS0 XDFSR13.XML0.N4 XDFSR13.RST_BAR
+ XDFSR13.XML0.XNAND0.NET2 VSS! NMOS_VTG L=6e-08 W=2.5e-07 AD=2.625e-14 AS=4e-14
+ PD=7.1e-07 PS=8.2e-07
mXdfsr13.Xml0.Xnand0.MPMOS1 XDFSR13.XML0.N4 XDFSR13.N VDD! VDD! PMOS_VTG L=6e-08
+ W=5.25e-07 AD=8.4e-14 AS=5.5125e-14 PD=1.37e-06 PS=1.26e-06
mXdfsr13.Xml0.Xnand0.MPMOS0 XDFSR13.XML0.N4 XDFSR13.RST_BAR VDD! VDD! PMOS_VTG
+ L=6e-08 W=5.25e-07 AD=8.4e-14 AS=5.5125e-14 PD=1.37e-06 PS=1.26e-06
mXdfsr13.Xml0.Xi0.MM0 XDFSR13.XML0.N1 STATE<14> VSS! VSS! NMOS_VTG L=6e-08
+ W=3.25e-07 AD=3.4125e-14 AS=3.4125e-14 PD=8.6e-07 PS=8.6e-07
mXdfsr13.Xml0.Xi0.MM1 XDFSR13.XML0.N1 STATE<14> VDD! VDD! PMOS_VTG L=6e-08
+ W=4.1e-07 AD=4.305e-14 AS=4.305e-14 PD=1.03e-06 PS=1.03e-06
mXdfsr13.Xml0.Xi1.MM0 XDFSR13.N XDFSR13.XML0.N2 VSS! VSS! NMOS_VTG L=6e-08
+ W=3.25e-07 AD=3.4125e-14 AS=3.4125e-14 PD=8.6e-07 PS=8.6e-07
mXdfsr13.Xml0.Xi1.MM1 XDFSR13.N XDFSR13.XML0.N2 VDD! VDD! PMOS_VTG L=6e-08
+ W=4.1e-07 AD=4.305e-14 AS=4.305e-14 PD=1.03e-06 PS=1.03e-06
mXdfsr13.Xsl0.Xi0.MM0 XDFSR13.XSL0.N2 XDFSR13.XSL0.N1 VSS! VSS! NMOS_VTG L=6e-08
+ W=3.25e-07 AD=3.4125e-14 AS=3.4125e-14 PD=8.6e-07 PS=8.6e-07
mXdfsr13.Xsl0.Xi0.MM1 XDFSR13.XSL0.N2 XDFSR13.XSL0.N1 VDD! VDD! PMOS_VTG L=6e-08
+ W=4.1e-07 AD=4.305e-14 AS=4.305e-14 PD=1.03e-06 PS=1.03e-06
mXdfsr13.Xsl0.Xi1.MM0 STATE<13> XDFSR13.XSL0.N2 VSS! VSS! NMOS_VTG L=6e-08
+ W=3.25e-07 AD=3.4125e-14 AS=3.4125e-14 PD=8.6e-07 PS=8.6e-07
mXdfsr13.Xsl0.Xi1.MM1 STATE<13> XDFSR13.XSL0.N2 VDD! VDD! PMOS_VTG L=6e-08
+ W=4.1e-07 AD=4.305e-14 AS=4.305e-14 PD=1.03e-06 PS=1.03e-06
mXdfsr13.XI0.MM0 XDFSR13.CLKI_BAR CLK VSS! VSS! NMOS_VTG L=6e-08 W=3.45e-07
+ AD=3.6225e-14 AS=3.6225e-14 PD=9e-07 PS=9e-07
mXdfsr13.XI0.MM1 XDFSR13.CLKI_BAR CLK VDD! VDD! PMOS_VTG L=6e-08 W=4.35e-07
+ AD=4.5675e-14 AS=4.5675e-14 PD=1.08e-06 PS=1.08e-06
mXdfsr13.XI1.MM0 XDFSR13.CLKI XDFSR13.CLKI_BAR VSS! VSS! NMOS_VTG L=6e-08
+ W=3.45e-07 AD=3.6225e-14 AS=3.6225e-14 PD=9e-07 PS=9e-07
mXdfsr13.XI1.MM1 XDFSR13.CLKI XDFSR13.CLKI_BAR VDD! VDD! PMOS_VTG L=6e-08
+ W=4.35e-07 AD=4.5675e-14 AS=4.5675e-14 PD=1.08e-06 PS=1.08e-06
mXdfsr13.XI2.MM0 XDFSR13.RST_BAR RST VSS! VSS! NMOS_VTG L=6e-08 W=3.45e-07
+ AD=3.6225e-14 AS=3.6225e-14 PD=9e-07 PS=9e-07
mXdfsr13.XI2.MM1 XDFSR13.RST_BAR RST VDD! VDD! PMOS_VTG L=6e-08 W=4.35e-07
+ AD=4.5675e-14 AS=4.5675e-14 PD=1.08e-06 PS=1.08e-06
mXdfsr13.Xsl0.Xnor0.MNMOS1 XDFSR13.XSL0.N3 XDFSR13.XSL0.N2 VSS! VSS! NMOS_VTG
+ L=6e-08 W=9.5e-08 AD=1.52e-14 AS=9.975e-15 PD=5.1e-07 PS=4e-07
mXdfsr13.Xsl0.Xnor0.MNMOS0 XDFSR13.XSL0.N3 RST VSS! VSS! NMOS_VTG L=6e-08
+ W=9.5e-08 AD=1.52e-14 AS=9.975e-15 PD=5.1e-07 PS=4e-07
mXdfsr13.Xsl0.Xnor0.MPMOS1 XDFSR13.XSL0.XNOR0.NET1 XDFSR13.XSL0.N2 VDD! VDD!
+ PMOS_VTG L=6e-08 W=3.55e-07 AD=5.68e-14 AS=3.7275e-14 PD=1.03e-06 PS=9.2e-07
mXdfsr13.Xsl0.Xnor0.MPMOS0 XDFSR13.XSL0.N3 RST XDFSR13.XSL0.XNOR0.NET1 VDD!
+ PMOS_VTG L=6e-08 W=3.55e-07 AD=3.7275e-14 AS=5.68e-14 PD=9.2e-07 PS=1.03e-06
mXdfsr13.Xml0.Xtg0.MM0 XDFSR13.XML0.N1 XDFSR13.CLKI_BAR XDFSR13.XML0.N2 VSS!
+ NMOS_VTG L=6e-08 W=2.65e-07 AD=4.77e-14 AS=4.77e-14 PD=8.9e-07 PS=8.9e-07
mXdfsr13.Xml0.Xtg0.MM1 XDFSR13.XML0.N1 XDFSR13.CLKI XDFSR13.XML0.N2 VDD!
+ PMOS_VTG L=6e-08 W=2.5e-07 AD=4.5e-14 AS=4.5e-14 PD=8.6e-07 PS=8.6e-07
mXdfsr13.Xml0.Xtg1.MM0 XDFSR13.XML0.N4 XDFSR13.CLKI XDFSR13.XML0.N2 VSS!
+ NMOS_VTG L=6e-08 W=2.65e-07 AD=4.77e-14 AS=4.77e-14 PD=8.9e-07 PS=8.9e-07
mXdfsr13.Xml0.Xtg1.MM1 XDFSR13.XML0.N4 XDFSR13.CLKI_BAR XDFSR13.XML0.N2 VDD!
+ PMOS_VTG L=6e-08 W=2.5e-07 AD=4.5e-14 AS=4.5e-14 PD=8.6e-07 PS=8.6e-07
mXdfsr13.Xsl0.Xtg1.MM0 XDFSR13.N XDFSR13.CLKI XDFSR13.XSL0.N1 VSS! NMOS_VTG
+ L=6e-08 W=2.65e-07 AD=4.77e-14 AS=4.77e-14 PD=8.9e-07 PS=8.9e-07
mXdfsr13.Xsl0.Xtg1.MM1 XDFSR13.N XDFSR13.CLKI_BAR XDFSR13.XSL0.N1 VDD! PMOS_VTG
+ L=6e-08 W=2.5e-07 AD=4.5e-14 AS=4.5e-14 PD=8.6e-07 PS=8.6e-07
mXdfsr13.Xsl0.Xtg0.MM0 XDFSR13.XSL0.N3 XDFSR13.CLKI_BAR XDFSR13.XSL0.N1 VSS!
+ NMOS_VTG L=6e-08 W=2.65e-07 AD=4.77e-14 AS=4.77e-14 PD=8.9e-07 PS=8.9e-07
mXdfsr13.Xsl0.Xtg0.MM1 XDFSR13.XSL0.N3 XDFSR13.CLKI XDFSR13.XSL0.N1 VDD!
+ PMOS_VTG L=6e-08 W=2.5e-07 AD=4.5e-14 AS=4.5e-14 PD=8.6e-07 PS=8.6e-07
mXdfsr12.Xml0.Xnand0.MNMOS1 XDFSR12.XML0.XNAND0.NET2 XDFSR12.N VSS! VSS!
+ NMOS_VTG L=6e-08 W=2.5e-07 AD=4e-14 AS=2.625e-14 PD=8.2e-07 PS=7.1e-07
mXdfsr12.Xml0.Xnand0.MNMOS0 XDFSR12.XML0.N4 XDFSR12.RST_BAR
+ XDFSR12.XML0.XNAND0.NET2 VSS! NMOS_VTG L=6e-08 W=2.5e-07 AD=2.625e-14 AS=4e-14
+ PD=7.1e-07 PS=8.2e-07
mXdfsr12.Xml0.Xnand0.MPMOS1 XDFSR12.XML0.N4 XDFSR12.N VDD! VDD! PMOS_VTG L=6e-08
+ W=5.25e-07 AD=8.4e-14 AS=5.5125e-14 PD=1.37e-06 PS=1.26e-06
mXdfsr12.Xml0.Xnand0.MPMOS0 XDFSR12.XML0.N4 XDFSR12.RST_BAR VDD! VDD! PMOS_VTG
+ L=6e-08 W=5.25e-07 AD=8.4e-14 AS=5.5125e-14 PD=1.37e-06 PS=1.26e-06
mXdfsr12.Xml0.Xi0.MM0 XDFSR12.XML0.N1 STATE<13> VSS! VSS! NMOS_VTG L=6e-08
+ W=3.25e-07 AD=3.4125e-14 AS=3.4125e-14 PD=8.6e-07 PS=8.6e-07
mXdfsr12.Xml0.Xi0.MM1 XDFSR12.XML0.N1 STATE<13> VDD! VDD! PMOS_VTG L=6e-08
+ W=4.1e-07 AD=4.305e-14 AS=4.305e-14 PD=1.03e-06 PS=1.03e-06
mXdfsr12.Xml0.Xi1.MM0 XDFSR12.N XDFSR12.XML0.N2 VSS! VSS! NMOS_VTG L=6e-08
+ W=3.25e-07 AD=3.4125e-14 AS=3.4125e-14 PD=8.6e-07 PS=8.6e-07
mXdfsr12.Xml0.Xi1.MM1 XDFSR12.N XDFSR12.XML0.N2 VDD! VDD! PMOS_VTG L=6e-08
+ W=4.1e-07 AD=4.305e-14 AS=4.305e-14 PD=1.03e-06 PS=1.03e-06
mXdfsr12.Xsl0.Xi0.MM0 XDFSR12.XSL0.N2 XDFSR12.XSL0.N1 VSS! VSS! NMOS_VTG L=6e-08
+ W=3.25e-07 AD=3.4125e-14 AS=3.4125e-14 PD=8.6e-07 PS=8.6e-07
mXdfsr12.Xsl0.Xi0.MM1 XDFSR12.XSL0.N2 XDFSR12.XSL0.N1 VDD! VDD! PMOS_VTG L=6e-08
+ W=4.1e-07 AD=4.305e-14 AS=4.305e-14 PD=1.03e-06 PS=1.03e-06
mXdfsr12.Xsl0.Xi1.MM0 STATE<12> XDFSR12.XSL0.N2 VSS! VSS! NMOS_VTG L=6e-08
+ W=3.25e-07 AD=3.4125e-14 AS=3.4125e-14 PD=8.6e-07 PS=8.6e-07
mXdfsr12.Xsl0.Xi1.MM1 STATE<12> XDFSR12.XSL0.N2 VDD! VDD! PMOS_VTG L=6e-08
+ W=4.1e-07 AD=4.305e-14 AS=4.305e-14 PD=1.03e-06 PS=1.03e-06
mXdfsr12.XI0.MM0 XDFSR12.CLKI_BAR CLK VSS! VSS! NMOS_VTG L=6e-08 W=3.45e-07
+ AD=3.6225e-14 AS=3.6225e-14 PD=9e-07 PS=9e-07
mXdfsr12.XI0.MM1 XDFSR12.CLKI_BAR CLK VDD! VDD! PMOS_VTG L=6e-08 W=4.35e-07
+ AD=4.5675e-14 AS=4.5675e-14 PD=1.08e-06 PS=1.08e-06
mXdfsr12.XI1.MM0 XDFSR12.CLKI XDFSR12.CLKI_BAR VSS! VSS! NMOS_VTG L=6e-08
+ W=3.45e-07 AD=3.6225e-14 AS=3.6225e-14 PD=9e-07 PS=9e-07
mXdfsr12.XI1.MM1 XDFSR12.CLKI XDFSR12.CLKI_BAR VDD! VDD! PMOS_VTG L=6e-08
+ W=4.35e-07 AD=4.5675e-14 AS=4.5675e-14 PD=1.08e-06 PS=1.08e-06
mXdfsr12.XI2.MM0 XDFSR12.RST_BAR RST VSS! VSS! NMOS_VTG L=6e-08 W=3.45e-07
+ AD=3.6225e-14 AS=3.6225e-14 PD=9e-07 PS=9e-07
mXdfsr12.XI2.MM1 XDFSR12.RST_BAR RST VDD! VDD! PMOS_VTG L=6e-08 W=4.35e-07
+ AD=4.5675e-14 AS=4.5675e-14 PD=1.08e-06 PS=1.08e-06
mXdfsr12.Xsl0.Xnor0.MNMOS1 XDFSR12.XSL0.N3 XDFSR12.XSL0.N2 VSS! VSS! NMOS_VTG
+ L=6e-08 W=9.5e-08 AD=1.52e-14 AS=9.975e-15 PD=5.1e-07 PS=4e-07
mXdfsr12.Xsl0.Xnor0.MNMOS0 XDFSR12.XSL0.N3 RST VSS! VSS! NMOS_VTG L=6e-08
+ W=9.5e-08 AD=1.52e-14 AS=9.975e-15 PD=5.1e-07 PS=4e-07
mXdfsr12.Xsl0.Xnor0.MPMOS1 XDFSR12.XSL0.XNOR0.NET1 XDFSR12.XSL0.N2 VDD! VDD!
+ PMOS_VTG L=6e-08 W=3.55e-07 AD=5.68e-14 AS=3.7275e-14 PD=1.03e-06 PS=9.2e-07
mXdfsr12.Xsl0.Xnor0.MPMOS0 XDFSR12.XSL0.N3 RST XDFSR12.XSL0.XNOR0.NET1 VDD!
+ PMOS_VTG L=6e-08 W=3.55e-07 AD=3.7275e-14 AS=5.68e-14 PD=9.2e-07 PS=1.03e-06
mXdfsr12.Xml0.Xtg0.MM0 XDFSR12.XML0.N1 XDFSR12.CLKI_BAR XDFSR12.XML0.N2 VSS!
+ NMOS_VTG L=6e-08 W=2.65e-07 AD=4.77e-14 AS=4.77e-14 PD=8.9e-07 PS=8.9e-07
mXdfsr12.Xml0.Xtg0.MM1 XDFSR12.XML0.N1 XDFSR12.CLKI XDFSR12.XML0.N2 VDD!
+ PMOS_VTG L=6e-08 W=2.5e-07 AD=4.5e-14 AS=4.5e-14 PD=8.6e-07 PS=8.6e-07
mXdfsr12.Xml0.Xtg1.MM0 XDFSR12.XML0.N4 XDFSR12.CLKI XDFSR12.XML0.N2 VSS!
+ NMOS_VTG L=6e-08 W=2.65e-07 AD=4.77e-14 AS=4.77e-14 PD=8.9e-07 PS=8.9e-07
mXdfsr12.Xml0.Xtg1.MM1 XDFSR12.XML0.N4 XDFSR12.CLKI_BAR XDFSR12.XML0.N2 VDD!
+ PMOS_VTG L=6e-08 W=2.5e-07 AD=4.5e-14 AS=4.5e-14 PD=8.6e-07 PS=8.6e-07
mXdfsr12.Xsl0.Xtg1.MM0 XDFSR12.N XDFSR12.CLKI XDFSR12.XSL0.N1 VSS! NMOS_VTG
+ L=6e-08 W=2.65e-07 AD=4.77e-14 AS=4.77e-14 PD=8.9e-07 PS=8.9e-07
mXdfsr12.Xsl0.Xtg1.MM1 XDFSR12.N XDFSR12.CLKI_BAR XDFSR12.XSL0.N1 VDD! PMOS_VTG
+ L=6e-08 W=2.5e-07 AD=4.5e-14 AS=4.5e-14 PD=8.6e-07 PS=8.6e-07
mXdfsr12.Xsl0.Xtg0.MM0 XDFSR12.XSL0.N3 XDFSR12.CLKI_BAR XDFSR12.XSL0.N1 VSS!
+ NMOS_VTG L=6e-08 W=2.65e-07 AD=4.77e-14 AS=4.77e-14 PD=8.9e-07 PS=8.9e-07
mXdfsr12.Xsl0.Xtg0.MM1 XDFSR12.XSL0.N3 XDFSR12.CLKI XDFSR12.XSL0.N1 VDD!
+ PMOS_VTG L=6e-08 W=2.5e-07 AD=4.5e-14 AS=4.5e-14 PD=8.6e-07 PS=8.6e-07
mXdfsr11.Xml0.Xnand0.MNMOS1 XDFSR11.XML0.XNAND0.NET2 XDFSR11.N VSS! VSS!
+ NMOS_VTG L=6e-08 W=2.5e-07 AD=4e-14 AS=2.625e-14 PD=8.2e-07 PS=7.1e-07
mXdfsr11.Xml0.Xnand0.MNMOS0 XDFSR11.XML0.N4 XDFSR11.RST_BAR
+ XDFSR11.XML0.XNAND0.NET2 VSS! NMOS_VTG L=6e-08 W=2.5e-07 AD=2.625e-14 AS=4e-14
+ PD=7.1e-07 PS=8.2e-07
mXdfsr11.Xml0.Xnand0.MPMOS1 XDFSR11.XML0.N4 XDFSR11.N VDD! VDD! PMOS_VTG L=6e-08
+ W=5.25e-07 AD=8.4e-14 AS=5.5125e-14 PD=1.37e-06 PS=1.26e-06
mXdfsr11.Xml0.Xnand0.MPMOS0 XDFSR11.XML0.N4 XDFSR11.RST_BAR VDD! VDD! PMOS_VTG
+ L=6e-08 W=5.25e-07 AD=8.4e-14 AS=5.5125e-14 PD=1.37e-06 PS=1.26e-06
mXdfsr11.Xml0.Xi0.MM0 XDFSR11.XML0.N1 STATE<12> VSS! VSS! NMOS_VTG L=6e-08
+ W=3.25e-07 AD=3.4125e-14 AS=3.4125e-14 PD=8.6e-07 PS=8.6e-07
mXdfsr11.Xml0.Xi0.MM1 XDFSR11.XML0.N1 STATE<12> VDD! VDD! PMOS_VTG L=6e-08
+ W=4.1e-07 AD=4.305e-14 AS=4.305e-14 PD=1.03e-06 PS=1.03e-06
mXdfsr11.Xml0.Xi1.MM0 XDFSR11.N XDFSR11.XML0.N2 VSS! VSS! NMOS_VTG L=6e-08
+ W=3.25e-07 AD=3.4125e-14 AS=3.4125e-14 PD=8.6e-07 PS=8.6e-07
mXdfsr11.Xml0.Xi1.MM1 XDFSR11.N XDFSR11.XML0.N2 VDD! VDD! PMOS_VTG L=6e-08
+ W=4.1e-07 AD=4.305e-14 AS=4.305e-14 PD=1.03e-06 PS=1.03e-06
mXdfsr11.Xsl0.Xi0.MM0 XDFSR11.XSL0.N2 XDFSR11.XSL0.N1 VSS! VSS! NMOS_VTG L=6e-08
+ W=3.25e-07 AD=3.4125e-14 AS=3.4125e-14 PD=8.6e-07 PS=8.6e-07
mXdfsr11.Xsl0.Xi0.MM1 XDFSR11.XSL0.N2 XDFSR11.XSL0.N1 VDD! VDD! PMOS_VTG L=6e-08
+ W=4.1e-07 AD=4.305e-14 AS=4.305e-14 PD=1.03e-06 PS=1.03e-06
mXdfsr11.Xsl0.Xi1.MM0 STATE<11> XDFSR11.XSL0.N2 VSS! VSS! NMOS_VTG L=6e-08
+ W=3.25e-07 AD=3.4125e-14 AS=3.4125e-14 PD=8.6e-07 PS=8.6e-07
mXdfsr11.Xsl0.Xi1.MM1 STATE<11> XDFSR11.XSL0.N2 VDD! VDD! PMOS_VTG L=6e-08
+ W=4.1e-07 AD=4.305e-14 AS=4.305e-14 PD=1.03e-06 PS=1.03e-06
mXdfsr11.XI0.MM0 XDFSR11.CLKI_BAR CLK VSS! VSS! NMOS_VTG L=6e-08 W=3.45e-07
+ AD=3.6225e-14 AS=3.6225e-14 PD=9e-07 PS=9e-07
mXdfsr11.XI0.MM1 XDFSR11.CLKI_BAR CLK VDD! VDD! PMOS_VTG L=6e-08 W=4.35e-07
+ AD=4.5675e-14 AS=4.5675e-14 PD=1.08e-06 PS=1.08e-06
mXdfsr11.XI1.MM0 XDFSR11.CLKI XDFSR11.CLKI_BAR VSS! VSS! NMOS_VTG L=6e-08
+ W=3.45e-07 AD=3.6225e-14 AS=3.6225e-14 PD=9e-07 PS=9e-07
mXdfsr11.XI1.MM1 XDFSR11.CLKI XDFSR11.CLKI_BAR VDD! VDD! PMOS_VTG L=6e-08
+ W=4.35e-07 AD=4.5675e-14 AS=4.5675e-14 PD=1.08e-06 PS=1.08e-06
mXdfsr11.XI2.MM0 XDFSR11.RST_BAR RST VSS! VSS! NMOS_VTG L=6e-08 W=3.45e-07
+ AD=3.6225e-14 AS=3.6225e-14 PD=9e-07 PS=9e-07
mXdfsr11.XI2.MM1 XDFSR11.RST_BAR RST VDD! VDD! PMOS_VTG L=6e-08 W=4.35e-07
+ AD=4.5675e-14 AS=4.5675e-14 PD=1.08e-06 PS=1.08e-06
mXdfsr11.Xsl0.Xnor0.MNMOS1 XDFSR11.XSL0.N3 XDFSR11.XSL0.N2 VSS! VSS! NMOS_VTG
+ L=6e-08 W=9.5e-08 AD=1.52e-14 AS=9.975e-15 PD=5.1e-07 PS=4e-07
mXdfsr11.Xsl0.Xnor0.MNMOS0 XDFSR11.XSL0.N3 RST VSS! VSS! NMOS_VTG L=6e-08
+ W=9.5e-08 AD=1.52e-14 AS=9.975e-15 PD=5.1e-07 PS=4e-07
mXdfsr11.Xsl0.Xnor0.MPMOS1 XDFSR11.XSL0.XNOR0.NET1 XDFSR11.XSL0.N2 VDD! VDD!
+ PMOS_VTG L=6e-08 W=3.55e-07 AD=5.68e-14 AS=3.7275e-14 PD=1.03e-06 PS=9.2e-07
mXdfsr11.Xsl0.Xnor0.MPMOS0 XDFSR11.XSL0.N3 RST XDFSR11.XSL0.XNOR0.NET1 VDD!
+ PMOS_VTG L=6e-08 W=3.55e-07 AD=3.7275e-14 AS=5.68e-14 PD=9.2e-07 PS=1.03e-06
mXdfsr11.Xml0.Xtg0.MM0 XDFSR11.XML0.N1 XDFSR11.CLKI_BAR XDFSR11.XML0.N2 VSS!
+ NMOS_VTG L=6e-08 W=2.65e-07 AD=4.77e-14 AS=4.77e-14 PD=8.9e-07 PS=8.9e-07
mXdfsr11.Xml0.Xtg0.MM1 XDFSR11.XML0.N1 XDFSR11.CLKI XDFSR11.XML0.N2 VDD!
+ PMOS_VTG L=6e-08 W=2.5e-07 AD=4.5e-14 AS=4.5e-14 PD=8.6e-07 PS=8.6e-07
mXdfsr11.Xml0.Xtg1.MM0 XDFSR11.XML0.N4 XDFSR11.CLKI XDFSR11.XML0.N2 VSS!
+ NMOS_VTG L=6e-08 W=2.65e-07 AD=4.77e-14 AS=4.77e-14 PD=8.9e-07 PS=8.9e-07
mXdfsr11.Xml0.Xtg1.MM1 XDFSR11.XML0.N4 XDFSR11.CLKI_BAR XDFSR11.XML0.N2 VDD!
+ PMOS_VTG L=6e-08 W=2.5e-07 AD=4.5e-14 AS=4.5e-14 PD=8.6e-07 PS=8.6e-07
mXdfsr11.Xsl0.Xtg1.MM0 XDFSR11.N XDFSR11.CLKI XDFSR11.XSL0.N1 VSS! NMOS_VTG
+ L=6e-08 W=2.65e-07 AD=4.77e-14 AS=4.77e-14 PD=8.9e-07 PS=8.9e-07
mXdfsr11.Xsl0.Xtg1.MM1 XDFSR11.N XDFSR11.CLKI_BAR XDFSR11.XSL0.N1 VDD! PMOS_VTG
+ L=6e-08 W=2.5e-07 AD=4.5e-14 AS=4.5e-14 PD=8.6e-07 PS=8.6e-07
mXdfsr11.Xsl0.Xtg0.MM0 XDFSR11.XSL0.N3 XDFSR11.CLKI_BAR XDFSR11.XSL0.N1 VSS!
+ NMOS_VTG L=6e-08 W=2.65e-07 AD=4.77e-14 AS=4.77e-14 PD=8.9e-07 PS=8.9e-07
mXdfsr11.Xsl0.Xtg0.MM1 XDFSR11.XSL0.N3 XDFSR11.CLKI XDFSR11.XSL0.N1 VDD!
+ PMOS_VTG L=6e-08 W=2.5e-07 AD=4.5e-14 AS=4.5e-14 PD=8.6e-07 PS=8.6e-07
mXdfsr10.Xml0.Xnand0.MNMOS1 XDFSR10.XML0.XNAND0.NET2 XDFSR10.N VSS! VSS!
+ NMOS_VTG L=6e-08 W=2.5e-07 AD=4e-14 AS=2.625e-14 PD=8.2e-07 PS=7.1e-07
mXdfsr10.Xml0.Xnand0.MNMOS0 XDFSR10.XML0.N4 XDFSR10.RST_BAR
+ XDFSR10.XML0.XNAND0.NET2 VSS! NMOS_VTG L=6e-08 W=2.5e-07 AD=2.625e-14 AS=4e-14
+ PD=7.1e-07 PS=8.2e-07
mXdfsr10.Xml0.Xnand0.MPMOS1 XDFSR10.XML0.N4 XDFSR10.N VDD! VDD! PMOS_VTG L=6e-08
+ W=5.25e-07 AD=8.4e-14 AS=5.5125e-14 PD=1.37e-06 PS=1.26e-06
mXdfsr10.Xml0.Xnand0.MPMOS0 XDFSR10.XML0.N4 XDFSR10.RST_BAR VDD! VDD! PMOS_VTG
+ L=6e-08 W=5.25e-07 AD=8.4e-14 AS=5.5125e-14 PD=1.37e-06 PS=1.26e-06
mXdfsr10.Xml0.Xi0.MM0 XDFSR10.XML0.N1 STATE<11> VSS! VSS! NMOS_VTG L=6e-08
+ W=3.25e-07 AD=3.4125e-14 AS=3.4125e-14 PD=8.6e-07 PS=8.6e-07
mXdfsr10.Xml0.Xi0.MM1 XDFSR10.XML0.N1 STATE<11> VDD! VDD! PMOS_VTG L=6e-08
+ W=4.1e-07 AD=4.305e-14 AS=4.305e-14 PD=1.03e-06 PS=1.03e-06